13
Potential is -0.00719057 compared with the distance is infinite.
 O 0.168691 -0.529254 -0.46981
 O -0.16869 0.529254 0.46981
 C -0.264658 -0.0692101 -1.75351
 H -0.00835299 -0.862723 -2.43823
 H 0.253267 0.840032 -2.01691
 H -1.33086 0.0967148 -1.74851
 C 0.264661 0.0692115 1.75351
 H 0.00844043 0.862764 2.43821
 H 1.33084 -0.0968498 1.74848
 H -0.253374 -0.839957 2.01695
 O 3.47933 0.0519179 0.0323482
 H 2.70993 -0.493534 0.334193
 H 3.72451 -0.33044 -0.847582
