13
Potential is -0.0100063 compared with the distance is infinite.
 O -0.565107 0.437464 0.136258
 O 0.565108 -0.437464 -0.136258
 C -0.2048 1.19726 1.29393
 H -1.05055 1.83993 1.48335
 H 0.678711 1.78349 1.09372
 H -0.034133 0.53942 2.13206
 C 0.204802 -1.19726 -1.29393
 H 1.05059 -1.83986 -1.4834
 H 0.0339965 -0.539422 -2.13204
 H -0.678633 -1.78359 -1.09366
 O 3.4892 -0.0228116 0.0504494
 H 3.70984 0.0270424 -0.913627
 H 2.56798 0.334994 0.112959
