13
Potential is -0.00678546 compared with the distance is infinite.
 O 0.208222 0.565363 0.407794
 O -0.208222 -0.565363 -0.407793
 C -0.668824 1.6426 0.0647463
 H -0.348555 2.47199 0.67607
 H -1.68988 1.37733 0.29151
 H -0.569645 1.88371 -0.982335
 C 0.668822 -1.6426 -0.0647439
 H 0.348493 -2.47202 -0.675999
 H 0.569755 -1.88363 0.982363
 H 1.68986 -1.37737 -0.291642
 O 3.9728 -0.0301366 0.0563427
 H 3.03272 0.0771983 -0.235796
 H 4.50549 0.401092 -0.658404
