13
Potential is -0.00807449 compared with the distance is infinite.
 O -0.202777 0.596367 -0.364026
 O 0.202778 -0.596367 0.364026
 C -0.731815 1.49497 0.615745
 H -1.02759 2.37266 0.0622298
 H 0.0274962 1.74304 1.34118
 H -1.58479 1.05099 1.10531
 C 0.731818 -1.49497 -0.615744
 H 1.02768 -2.37262 -0.0622168
 H 1.5847 -1.05095 -1.10541
 H -0.027545 -1.74314 -1.34109
 O 3.57759 0.0465776 -0.0408847
 H 2.74985 0.126001 0.496832
 H 3.91224 -0.865221 0.152038
