13
Potential is -0.00657649 compared with the distance is infinite.
 O 0.531578 0.496701 -1.88146e-07
 O -0.531578 -0.496701 -1.88146e-07
 C 1.75848 -0.23952 -1.69815e-06
 H 2.53584 0.50875 -4.88581e-05
 H 1.82381 -0.853228 -0.885123
 H 1.82386 -0.853119 0.885195
 C -1.75848 0.23952 -1.69815e-06
 H -2.53584 -0.50875 -4.88581e-05
 H -1.82381 0.853228 -0.885123
 H -1.82386 0.853119 0.885195
 O 5.26083 0.0211178 0.0512078
 H 6.25016 0.00477778 0.0115878
 H 4.97147 -0.339932 -0.824292
