13
Potential is -0.00639416 compared with the distance is infinite.
 O 0.316403 0.449039 -0.477012
 O -0.316403 -0.449039 0.477012
 C -0.611953 0.595065 -1.55597
 H -0.12997 1.26212 -2.25377
 H -1.53443 1.02473 -1.19714
 H -0.800514 -0.36246 -2.01634
 C 0.611951 -0.595062 1.55597
 H 0.12993 -1.26204 2.25381
 H 0.800628 0.362475 2.01626
 H 1.53438 -1.02486 1.19715
 O 3.83927 -0.0656113 0.013502
 H 3.84193 0.378616 -0.871521
 H 4.02843 0.662683 0.657234
