13
Potential is -0.00760111 compared with the distance is infinite.
 O -0.50463 0.131438 0.507307
 O 0.50463 -0.131438 -0.507306
 C -0.336105 -0.882737 1.50248
 H -1.08954 -0.675163 2.24641
 H 0.650454 -0.819021 1.9349
 H -0.491152 -1.85856 1.06881
 C 0.336108 0.882739 -1.50248
 H 1.08961 0.67522 -2.24636
 H 0.491014 1.85858 -1.06879
 H -0.65041 0.818923 -1.93498
 O 3.58768 0.0291299 -0.0483142
 H 3.17283 0.461528 0.740066
 H 3.32921 -0.92384 0.0267156
