13
Potential is -0.00671882 compared with the distance is infinite.
 O 0.00520669 0.128489 -0.716066
 O -0.00520643 -0.128489 0.716066
 C 1.01018 1.12422 -0.93021
 H 1.00627 1.30395 -1.99411
 H 1.97299 0.755115 -0.612234
 H 0.760336 2.02613 -0.393096
 C -1.01018 -1.12423 0.93021
 H -1.0062 -1.30402 1.99409
 H -0.760418 -2.02609 0.392991
 H -1.97301 -0.755052 0.612357
 O 4.22624 -0.0336954 -0.0538764
 H 4.27757 -0.348413 0.883636
 H 4.59945 0.883184 -0.0285777
