13
Potential is -0.00972845 compared with the distance is infinite.
 O 0.167167 0.708046 0.0036631
 O -0.167167 -0.708046 -0.00366285
 C -0.647562 1.31028 -1.00671
 H -0.389162 2.35772 -0.98946
 H -1.69198 1.17417 -0.772165
 H -0.422522 0.880771 -1.97067
 C 0.647559 -1.31028 1.00671
 H 0.389092 -2.3577 0.989526
 H 0.422629 -0.880683 1.97066
 H 1.69198 -1.17428 0.772082
 O 3.6136 -0.00927703 0.0217199
 H 3.14257 -0.496253 -0.7005
 H 2.9481 0.643486 0.355788
