13
Potential is -0.00663643 compared with the distance is infinite.
 O -0.258352 0.553217 0.395591
 O 0.258352 -0.553217 -0.395591
 C 0.658963 0.723811 1.48037
 H 0.263566 1.54572 2.05684
 H 1.64079 0.964123 1.10272
 H 0.698498 -0.173476 2.07842
 C -0.658962 -0.723809 -1.48037
 H -0.263514 -1.54566 -2.0569
 H -0.69861 0.173517 -2.07835
 H -1.64075 -0.964257 -1.10272
 O 3.83664 0.0636695 0.0192343
 H 3.71996 -0.766132 0.546895
 H 4.19215 -0.244349 -0.852157
