13
Potential is -0.00699489 compared with the distance is infinite.
 O 0.125945 0.457093 -0.551807
 O -0.125946 -0.457093 0.551807
 C -0.0921032 -0.298808 -1.74696
 H 0.0979509 0.390719 -2.55481
 H -1.11104 -0.652125 -1.7827
 H 0.593222 -1.13114 -1.79066
 C 0.0920999 0.298809 1.74696
 H -0.098045 -0.390692 2.55481
 H -0.593124 1.13122 1.7906
 H 1.11108 0.652003 1.78276
 O 3.3946 0.0210636 -0.0465748
 H 2.67281 0.545934 0.382528
 H 3.3193 -0.880229 0.356648
