13
Potential is -0.00875046 compared with the distance is infinite.
 O 0.389821 0.211877 0.576572
 O -0.389821 -0.211877 -0.576572
 C 0.774451 -0.988089 1.25441
 H 1.35054 -0.658591 2.10514
 H 1.37668 -1.60496 0.605457
 H -0.101209 -1.52975 1.57716
 C -0.774448 0.988089 -1.25441
 H -1.35046 0.658587 -2.10519
 H 0.101202 1.52983 -1.57705
 H -1.37679 1.60488 -0.605493
 O 3.46116 -0.0464147 0.0482024
 H 2.64508 0.0745611 -0.499509
 H 4.07778 0.662074 -0.265498
