13
Potential is -0.0094168 compared with the distance is infinite.
 O -0.414004 0.527316 -0.282535
 O 0.414004 -0.527316 0.282535
 C -0.47388 1.55572 0.710504
 H -1.08969 2.32906 0.278168
 H 0.516375 1.93147 0.916774
 H -0.923992 1.17434 1.614
 C 0.473882 -1.55572 -0.710505
 H 1.08977 -2.32902 -0.278206
 H 0.923865 -1.17432 -1.61405
 H -0.516365 -1.93156 -0.916665
 O 3.38157 -0.0247727 -0.0546998
 H 3.61539 -0.167847 0.896862
 H 2.58359 0.561007 -0.0287372
