13
Potential is -0.00836481 compared with the distance is infinite.
 O -0.381778 -0.560332 0.263744
 O 0.381777 0.560332 -0.263744
 C -0.820992 -0.159787 1.56527
 H -1.38447 -0.998892 1.94288
 H -1.44796 0.715451 1.49307
 H 0.0289514 0.0412721 2.19893
 C 0.820989 0.159788 -1.56527
 H 1.38439 0.998929 -1.94292
 H -0.0289413 -0.0414076 -2.1989
 H 1.44807 -0.715371 -1.49304
 O 3.58768 -0.0322209 -0.0463102
 H 3.17283 0.863981 -0.119342
 H 3.32921 -0.352613 0.854318
