13
Potential is -0.00697092 compared with the distance is infinite.
 O -0.555482 0.469786 0.00537201
 O 0.555482 -0.469785 -0.00537189
 C -1.12722 0.388672 1.31452
 H -1.94777 1.08927 1.30729
 H -0.39655 0.669173 2.05734
 H -1.48534 -0.611714 1.50247
 C 1.12722 -0.38867 -1.31452
 H 1.94783 -1.0892 -1.30726
 H 1.48522 0.611744 -1.50253
 H 0.396581 -0.669307 -2.05732
 O 4.17933 -0.0607567 -0.00713568
 H 4.08834 0.652202 -0.688328
 H 3.74621 0.312051 0.801576
