13
Potential is -0.00933126 compared with the distance is infinite.
 O 0.205828 -0.380658 0.584826
 O -0.205828 0.380658 -0.584826
 C -0.427453 0.245134 1.70494
 H -0.113595 -0.329064 2.56284
 H -1.50019 0.206059 1.5952
 H -0.0984794 1.26896 1.79384
 C 0.427451 -0.245136 -1.70494
 H 0.113517 0.329005 -2.56285
 H 0.0985923 -1.269 -1.79377
 H 1.5002 -0.205931 -1.59526
 O 3.34609 0.0559127 -0.0382212
 H 3.95612 -0.715604 -0.153281
 H 2.80592 -0.171771 0.75988
