13
Potential is -0.00692178 compared with the distance is infinite.
 O 0.616481 0.118151 -0.367803
 O -0.616481 -0.118151 0.367804
 C 0.255622 0.926435 -1.49198
 H 1.17791 1.09302 -2.02661
 H -0.162457 1.86325 -1.15742
 H -0.453275 0.402501 -2.11432
 C -0.255621 -0.926432 1.49199
 H -1.17789 -1.09294 2.02667
 H 0.45338 -0.402567 2.11426
 H 0.162329 -1.8633 1.15741
 O 3.64303 0.0418161 0.0529647
 H 4.40754 -0.0210845 -0.573281
 H 3.00301 -0.642567 -0.267308
