13
Potential is -0.00743165 compared with the distance is infinite.
 O -0.0634256 0.278964 -0.668912
 O 0.0634253 -0.278964 0.668912
 C -0.304683 -0.832038 -1.5377
 H -0.396376 -0.40366 -2.52374
 H -1.21812 -1.33271 -1.25609
 H 0.525235 -1.52063 -1.49988
 C 0.304679 0.832038 1.5377
 H 0.396279 0.40367 2.52375
 H -0.525167 1.5207 1.49979
 H 1.21819 1.33262 1.25617
 O 3.28563 0.0576559 -0.00297104
 H 3.02125 -0.450628 0.804718
 H 2.91331 -0.464413 -0.757565
