13
Potential is -0.0104235 compared with the distance is infinite.
 O -0.263832 -0.434595 -0.520391
 O 0.263833 0.434595 0.520391
 C -0.226923 0.330708 -1.72881
 H -0.620215 -0.325426 -2.48973
 H 0.788852 0.61213 -1.95978
 H -0.844706 1.20999 -1.63102
 C 0.226926 -0.330709 1.72881
 H 0.620305 0.325393 2.48971
 H 0.844594 -1.21006 1.63099
 H -0.788873 -0.612007 1.95984
 O 3.10732 -0.0212437 0.0294148
 H 2.66151 0.856755 0.134204
 H 2.52874 -0.519603 -0.601038
