13
Potential is -0.00891671 compared with the distance is infinite.
 O -0.477948 0.390083 -0.385602
 O 0.477948 -0.390083 0.385601
 C -0.460457 1.70453 0.179412
 H -1.1724 2.27016 -0.401443
 H 0.525662 2.13377 0.0918315
 H -0.760909 1.66801 1.21515
 C 0.46046 -1.70453 -0.179414
 H 1.17247 -2.27014 0.40138
 H 0.760775 -1.66801 -1.21518
 H -0.525633 -2.13381 -0.0917018
 O 3.61145 -0.0286371 -0.00237245
 H 3.39288 0.92649 0.141049
 H 2.73179 -0.471998 -0.103397
