13
Potential is -0.0113554 compared with the distance is infinite.
 O 0.285172 -0.0564865 -0.666913
 O -0.285172 0.0564867 0.666913
 C -0.442274 -1.10189 -1.31904
 H -0.00915144 -1.17381 -2.30465
 H -1.4879 -0.843229 -1.38305
 H -0.319675 -2.03037 -0.783085
 C 0.442272 1.1019 1.31904
 H 0.00908696 1.17388 2.30461
 H 0.319795 2.03035 0.783018
 H 1.48788 0.843156 1.38316
 O 3.29496 0.00120574 0.0507932
 H 2.71564 -0.751882 -0.228245
 H 3.07089 0.732746 -0.57788
