13
Potential is -0.00871361 compared with the distance is infinite.
 O 0.466457 -0.164645 0.533477
 O -0.466457 0.164645 -0.533477
 C 0.939531 -1.48482 0.249465
 H 1.62872 -1.71463 1.04721
 H 1.4448 -1.50163 -0.703827
 H 0.116292 -2.18241 0.247826
 C -0.939528 1.48482 -0.249467
 H -1.62864 1.71466 -1.04726
 H -0.116283 2.18239 -0.247688
 H -1.44492 1.50159 0.703766
 O 3.68384 -0.0587801 0.00139149
 H 3.4676 0.49765 -0.788695
 H 3.29529 0.435233 0.766611
