13
Potential is -0.00851775 compared with the distance is infinite.
 O -0.34449 -0.201065 -0.60843
 O 0.344491 0.201065 0.608429
 C -0.116303 0.847379 -1.55501
 H -0.631944 0.535721 -2.4501
 H 0.940638 0.953564 -1.7446
 H -0.524536 1.77593 -1.18692
 C 0.116306 -0.847381 1.55501
 H 0.632025 -0.535766 2.45006
 H 0.52441 -1.77596 1.18687
 H -0.940632 -0.953462 1.74469
 O 3.36676 0.0643223 0.0135653
 H 3.96118 -0.664628 -0.296123
 H 2.47278 -0.356213 0.0808322
