13
Potential is -0.0111417 compared with the distance is infinite.
 O 0.629674 -0.122912 0.343061
 O -0.629674 0.122912 -0.343061
 C 0.3932 -1.23276 1.21463
 H 1.33369 -1.40292 1.71534
 H 0.106949 -2.10111 0.64158
 H -0.37696 -0.986768 1.92925
 C -0.393199 1.23276 -1.21463
 H -1.33366 1.40286 -1.71541
 H 0.377054 0.986829 -1.92917
 H -0.107083 2.10114 -0.641556
 O 3.49265 -0.030378 0.0431346
 H 2.68902 0.505387 0.26164
 H 3.53411 -0.0232655 -0.946217
