13
Potential is -0.00736115 compared with the distance is infinite.
 O -0.179249 -0.703395 -0.0489212
 O 0.179249 0.703394 0.0489215
 C 1.02331 -1.39245 -0.404417
 H 0.742378 -2.43195 -0.473088
 H 1.77191 -1.25238 0.359995
 H 1.38913 -1.03569 -1.35481
 C -1.02331 1.39245 0.40442
 H -0.742357 2.43194 0.473182
 H -1.38921 1.0356 1.35474
 H -1.77185 1.25249 -0.360068
 O 4.15713 -0.0570356 0.036035
 H 4.04565 0.0308891 -0.943992
 H 4.14124 0.874308 0.372091
