13
Potential is -0.00733462 compared with the distance is infinite.
 O -0.662542 0.28468 -0.0963467
 O 0.662542 -0.28468 0.0963464
 C -0.545546 1.19071 -1.1976
 H -1.53359 1.60408 -1.32829
 H -0.237036 0.659641 -2.0848
 H 0.163006 1.97028 -0.963987
 C 0.545546 -1.19071 1.19759
 H 1.53357 -1.60415 1.32823
 H -0.163106 -1.97021 0.964053
 H 0.237168 -0.659606 2.08483
 O 3.80609 0.0165473 -0.0343898
 H 3.47522 -0.890567 0.185332
 H 3.13462 0.62795 0.36046
