13
Potential is -0.00966126 compared with the distance is infinite.
 O 0.433576 0.324413 0.485856
 O -0.433576 -0.324413 -0.485855
 C 0.0180489 1.69279 0.532694
 H 0.668547 2.15998 1.25573
 H -1.01083 1.75822 0.851241
 H 0.138449 2.15128 -0.43666
 C -0.0180512 -1.69279 -0.532692
 H -0.668611 -2.16 -1.25566
 H -0.138315 -2.15125 0.436688
 H 1.01079 -1.75821 -0.851374
 O 3.25279 0.00569824 -0.0675433
 H 3.91532 -0.420054 0.532793
 H 2.54036 0.329619 0.539169
