13
Potential is -0.00626952 compared with the distance is infinite.
 O 0.616481 0.238324 -0.304041
 O -0.616481 -0.238324 0.304041
 C 0.255622 1.38619 -1.07832
 H 1.17791 1.72777 -1.52206
 H -0.162457 2.14894 -0.43976
 H -0.453275 1.11047 -1.8437
 C -0.255621 -1.38618 1.07833
 H -1.17789 -1.72771 1.52214
 H 0.45338 -1.11051 1.84362
 H 0.162329 -2.14898 0.439729
 O 3.78274 -0.0506908 0.0310016
 H 3.2548 0.675329 0.44908
 H 3.72564 0.129171 -0.941097
