13
Potential is -0.00995934 compared with the distance is infinite.
 O 0.517624 -0.431273 0.274512
 O -0.517624 0.431273 -0.274512
 C -0.031597 -1.75251 0.278122
 H 0.745671 -2.3794 0.686847
 H -0.273613 -2.05729 -0.728298
 H -0.912347 -1.78731 0.900552
 C 0.0315982 1.75251 -0.278125
 H -0.745636 2.37938 -0.686937
 H 0.912426 1.78729 -0.90044
 H 0.273481 2.05733 0.728318
 O 3.40263 0.042237 -0.00698422
 H 3.11277 -0.435029 0.810823
 H 2.752 -0.235303 -0.699979
