13
Potential is -0.00848001 compared with the distance is infinite.
 O 0.317182 -0.43262 -0.491449
 O -0.317182 0.432621 0.491449
 C -0.659982 -0.649919 -1.51383
 H -0.176235 -1.29162 -2.23383
 H -0.936865 0.288449 -1.96896
 H -1.53028 -1.13476 -1.09927
 C 0.659983 0.649922 1.51382
 H 0.176268 1.2917 2.23378
 H 1.53034 1.13464 1.09925
 H 0.936755 -0.288441 1.96904
 O 3.68888 -0.042681 0.0356254
 H 3.64527 0.943766 0.110671
 H 3.0377 -0.266387 -0.676073
