13
Potential is -0.0108523 compared with the distance is infinite.
 O 0.229335 -0.163087 -0.670891
 O -0.229335 0.163087 0.670892
 C -0.169215 0.932455 -1.50051
 H 0.176997 0.67685 -2.48995
 H 0.296137 1.84473 -1.1606
 H -1.24332 1.03511 -1.49015
 C 0.169218 -0.932453 1.50051
 H -0.176912 -0.676805 2.48997
 H 1.24331 -1.03521 1.49005
 H -0.296252 -1.8447 1.16067
 O 3.10314 -0.0173649 0.038438
 H 2.84264 -0.391798 -0.840512
 H 2.41406 0.667391 0.230473
