13
Potential is -0.00843899 compared with the distance is infinite.
 O -0.289113 -0.0489518 0.665811
 O 0.289113 0.0489519 -0.665811
 C -0.298713 -1.44267 0.989497
 H -0.729113 -1.49934 1.97729
 H 0.708188 -1.8306 0.992521
 H -0.905351 -1.98479 0.280662
 C 0.298716 1.44267 -0.989496
 H 0.729202 1.49935 -1.97725
 H 0.905236 1.98482 -0.280589
 H -0.708205 1.83055 -0.992652
 O 3.29643 0.00358564 -0.0493294
 H 3.20558 0.59244 0.741624
 H 2.55748 -0.649347 0.0412699
