13
Potential is -0.00813097 compared with the distance is infinite.
 O 0.294734 0.16993 -0.643073
 O -0.294734 -0.16993 0.643073
 C 1.69867 0.313613 -0.407191
 H 2.12126 0.564959 -1.36763
 H 2.11143 -0.614572 -0.0432611
 H 1.87708 1.10551 0.303733
 C -1.69867 -0.313616 0.40719
 H -2.12125 -0.565054 1.36761
 H -1.87708 -1.10542 -0.303836
 H -2.11144 0.614618 0.0433919
 O 4.80127 0.0242848 -0.0404748
 H 4.96085 0.23982 0.912777
 H 5.51249 -0.625238 -0.270413
