13
Potential is -0.0128979 compared with the distance is infinite.
 O 0.394152 -0.53249 -0.300642
 O -0.394153 0.53249 0.300641
 C -0.273993 -1.75315 0.0323839
 H 0.320741 -2.53193 -0.419255
 H -1.27249 -1.75402 -0.376702
 H -0.309528 -1.8772 1.10369
 C 0.273991 1.75315 -0.0323868
 H -0.320794 2.53194 0.419173
 H 0.309656 1.87715 -1.10369
 H 1.27244 1.75406 0.376824
 O 3.28281 0.0571203 0.0162272
 H 3.675 -0.819699 -0.224561
 H 2.30432 -0.0868404 -0.0329762
