13
Potential is -0.0112518 compared with the distance is infinite.
 O -0.347948 -0.501944 0.395313
 O 0.347948 0.501944 -0.395312
 C 0.596589 -1.55388 0.615775
 H 0.067436 -2.28912 1.20196
 H 1.4501 -1.17928 1.1594
 H 0.910155 -1.97553 -0.326687
 C -0.596588 1.55388 -0.615772
 H -0.0674062 2.28916 -1.20188
 H -0.910267 1.97545 0.326687
 H -1.45004 1.1793 -1.15952
 O 3.38544 -0.0567678 0.0111188
 H 3.35958 0.760829 0.56922
 H 2.77793 0.140117 -0.745683
