16
Potential is -0.0109106 compared with the distance is infinite.
 C 1.05097 -0.22408 0.580808
 N 2.40989 -0.299665 0.965381
 H 3.13913 0.125526 0.374753
 H 2.68412 -0.778308 1.83592
 N 0.707868 0.411549 -0.571203
 C -0.59049 0.498081 -0.96314
 O -0.873429 1.07254 -1.99916
 N -1.58013 -0.0611211 -0.192221
 C -1.27205 -0.703771 0.965219
 H -2.5789 0.00508273 -0.493088
 C 0.056056 -0.798745 1.37718
 H -2.05742 -1.14221 1.56787
 H 0.306427 -1.30968 2.29842
 O 5.16332 0.0554399 -0.0135283
 H 5.64382 -0.164008 0.824071
 H 5.3384 -0.715864 -0.609367
