16
Potential is -0.0136292 compared with the distance is infinite.
 C -1.01484 0.679827 -0.00634562
 N -2.11349 1.49736 0.347033
 H -2.23862 1.80229 1.32314
 H -2.79727 1.79542 -0.364115
 N -0.12266 0.296386 0.945427
 C 0.941306 -0.488828 0.631976
 O 1.72717 -0.819455 1.50174
 N 1.12891 -0.907835 -0.662497
 C 0.256109 -0.542891 -1.63851
 H 1.94701 -1.51175 -0.904241
 C -0.838673 0.262166 -1.32878
 H 0.410318 -0.876948 -2.65677
 H -1.53668 0.555492 -2.10284
 O 4.43376 -0.00665165 -0.0584671
 H 3.45517 -0.0546131 0.0853152
 H 4.80904 0.16018 0.8426
