16
Potential is -0.0120735 compared with the distance is infinite.
 C 0.0663536 0.0743217 1.21744
 N 0.466625 -0.0103686 2.57128
 H 1.3654 -0.449085 2.81858
 H -0.133099 0.363791 3.32126
 N 0.870663 -0.424785 0.241301
 C 0.509256 -0.355961 -1.06694
 O 1.24637 -0.809981 -1.92363
 N -0.684245 0.224271 -1.42092
 C -1.51204 0.733126 -0.470446
 H -0.962795 0.277529 -2.42691
 C -1.15183 0.668174 0.874409
 H -2.45134 1.18908 -0.756863
 H -1.80792 1.07214 1.63518
 O 4.06841 0.0615782 -0.0217152
 H 3.2252 -0.194966 0.429721
 H 4.58261 -0.782324 -0.085085
