13
Potential is -0.00657639 compared with the distance is infinite.
 O -0.476001 -0.430645 0.342426
 O 0.476001 0.430645 -0.342426
 C 0.19939 -0.917033 1.5063
 H -0.51736 -1.55266 2.00272
 H 0.480724 -0.0935086 2.14426
 H 1.07263 -1.48269 1.22022
 C -0.199391 0.917035 -1.5063
 H 0.517328 1.55274 -2.00267
 H -1.07271 1.48257 -1.22024
 H -0.480597 0.0935088 -2.14432
 O 3.6636 -0.0648933 -0.0143654
 H 3.27503 0.620273 -0.614511
 H 3.80918 0.40963 0.8425
