13
Potential is -0.0069865 compared with the distance is infinite.
 O 0.198633 -0.317146 -0.6239
 O -0.198633 0.317146 0.623899
 C -0.80294 -1.30036 -0.902207
 H -0.495497 -1.76119 -1.82812
 H -1.76629 -0.827814 -1.01619
 H -0.837226 -2.03102 -0.108909
 C 0.802939 1.30037 0.902206
 H 0.495446 1.76125 1.82807
 H 0.83733 2.03095 0.108849
 H 1.76626 0.827786 1.01633
 O 3.95021 -0.0452683 0.0505283
 H 4.72676 0.4242 -0.345917
 H 3.16998 0.294241 -0.456004
