13
Potential is -0.0102462 compared with the distance is infinite.
 O 0.36427 0.278218 0.564969
 O -0.36427 -0.278218 -0.564969
 C -0.0947425 -0.433251 1.71842
 H 0.453114 -0.0106722 2.54635
 H 0.123514 -1.48518 1.61762
 H -1.15513 -0.283105 1.85023
 C 0.094745 0.433249 -1.71842
 H -0.453044 0.0106058 -2.54636
 H 1.15516 0.283225 -1.85016
 H -0.123643 1.48516 -1.61767
 O 3.38844 0.0159358 0.053581
 H 2.41028 0.132969 -0.0470317
 H 3.67968 -0.385881 -0.803338
