13
Potential is -0.00788202 compared with the distance is infinite.
 O 0.20441 0.0777075 0.693877
 O -0.20441 -0.0777077 -0.693877
 C -0.522851 -0.909314 1.43158
 H -0.209938 -0.782131 2.45632
 H -0.271047 -1.89748 1.07879
 H -1.58391 -0.738017 1.33582
 C 0.522854 0.909312 -1.43158
 H 0.21001 0.782067 -2.45634
 H 1.58391 0.73811 -1.33571
 H 0.270935 1.89749 -1.07888
 O 3.67538 -0.0130116 -0.0615532
 H 2.83978 0.470043 0.159872
 H 4.05739 -0.263539 0.817022
