13
Potential is -0.0123084 compared with the distance is infinite.
 O -0.1411 -0.126396 0.702426
 O 0.141101 0.126396 -0.702426
 C -0.176504 -1.54947 0.847138
 H -0.386176 -1.72113 1.89153
 H 0.778102 -1.97441 0.577897
 H -0.957823 -1.96651 0.230727
 C 0.176507 1.54947 -0.847137
 H 0.386272 1.72113 -1.89151
 H 0.957729 1.96654 -0.230627
 H -0.77815 1.97439 -0.578025
 O 2.91626 0.0129264 0.00672767
 H 2.22656 -0.0030627 0.717134
 H 2.42189 -0.202089 -0.823907
