13
Potential is -0.0101643 compared with the distance is infinite.
 O 0.394152 -0.457716 0.405497
 O -0.394153 0.457715 -0.405497
 C -0.273993 -0.540525 1.66805
 H 0.320741 -1.22124 2.25722
 H -1.27249 -0.927577 1.53561
 H -0.309528 0.431921 2.13435
 C 0.273991 0.540522 -1.66805
 H -0.320794 1.22116 -2.25725
 H 0.309656 -0.43194 -2.1343
 H 1.27244 0.927707 -1.53561
 O 3.24828 0.0644525 0.021102
 H 4.04531 -0.479563 -0.201162
 H 2.48199 -0.543344 -0.133742
