13
Potential is -0.010391 compared with the distance is infinite.
 O -0.455614 -0.194668 0.532736
 O 0.455615 0.194668 -0.532736
 C -0.0955461 -1.53271 0.889561
 H -0.778219 -1.80702 1.6788
 H 0.923423 -1.56171 1.2434
 H -0.214746 -2.18861 0.0410761
 C 0.0955483 1.53271 -0.889559
 H 0.778282 1.80705 -1.67874
 H 0.21461 2.1886 -0.0410466
 H -0.92338 1.56168 -1.24353
 O 3.41431 0.0195401 -0.00918877
 H 2.76906 0.354753 0.663045
 H 2.91025 -0.664869 -0.517212
