13
Potential is -0.00953787 compared with the distance is infinite.
 O 0.394152 0.598789 0.124026
 O -0.394153 -0.598789 -0.124026
 C -0.273993 1.65985 -0.56522
 H 0.320741 2.53924 -0.372455
 H -1.27249 1.78537 -0.175868
 H -0.309528 1.45146 -1.62336
 C 0.273991 -1.65985 0.565223
 H -0.320794 -2.53922 0.372535
 H 0.309656 -1.4514 1.62335
 H 1.27244 -1.78545 0.175765
 O 3.36246 0.0146135 -0.0650668
 H 2.6203 0.347586 0.499689
 H 3.88203 -0.579513 0.532968
