13
Potential is -0.00979382 compared with the distance is infinite.
 O 0.026558 -0.24088 0.685973
 O -0.0265576 0.24088 -0.685973
 C -0.291477 -1.63467 0.626531
 H -0.248179 -1.97718 1.64879
 H 0.434112 -2.15611 0.0215802
 H -1.28251 -1.77297 0.222696
 C 0.291481 1.63467 -0.626532
 H 0.248273 1.97716 -1.6488
 H 1.28245 1.77299 -0.22257
 H -0.434197 2.15612 -0.0216901
 O 3.08715 0.0532241 -0.0197354
 H 2.49793 -0.514868 -0.577145
 H 3.01248 -0.329837 0.890361
