13
Potential is -0.00759535 compared with the distance is infinite.
 O -0.400596 0.104173 -0.598296
 O 0.400596 -0.104173 0.598296
 C -0.190908 -1.0494 -1.41843
 H -0.789963 -0.880854 -2.29986
 H -0.519588 -1.93775 -0.901581
 H 0.852368 -1.13459 -1.68048
 C 0.190905 1.0494 1.41844
 H 0.789887 0.88081 2.29991
 H -0.852387 1.13468 1.68037
 H 0.519719 1.93773 0.901624
 O 3.32938 0.0268652 -0.058784
 H 2.80434 -0.527963 0.571382
 H 4.22287 0.101593 0.361563
