13
Potential is -0.00853454 compared with the distance is infinite.
 O -0.122149 0.676101 0.239279
 O 0.122149 -0.676101 -0.239279
 C -0.233587 0.576131 1.66227
 H -0.41415 1.58417 2.00205
 H 0.684575 0.19425 2.08119
 H -1.05965 -0.0659389 1.9263
 C 0.23359 -0.576131 -1.66227
 H 0.414246 -1.58415 -2.00204
 H 1.05957 0.066046 -1.92631
 H -0.684629 -0.194378 -2.08119
 O 3.08288 -0.0112742 -0.058258
 H 3.16959 -0.50966 0.793037
 H 2.40853 0.68859 0.13156
