13
Potential is -0.0119853 compared with the distance is infinite.
 O -0.534929 0.208632 -0.446779
 O 0.534929 -0.208632 0.446779
 C 0.0674696 1.09374 -1.396
 H -0.736162 1.3941 -2.05033
 H 0.834737 0.576893 -1.95144
 H 0.485415 1.95121 -0.89161
 C -0.067469 -1.09374 1.396
 H 0.736181 -1.39418 2.05027
 H -0.48554 -1.95115 0.891609
 H -0.834641 -0.576844 1.95153
 O 3.41212 0.0246335 -0.0116996
 H 3.14355 -0.924104 0.0798399
 H 2.57059 0.533154 0.10584
