13
Potential is -0.0106394 compared with the distance is infinite.
 O -0.443653 0.000843054 -0.576592
 O 0.443653 -0.000843115 0.576592
 C -0.505375 1.35853 -1.02403
 H -1.16532 1.34397 -1.87752
 H 0.47702 1.70045 -1.31097
 H -0.907188 1.9886 -0.245621
 C 0.505377 -1.35853 1.02402
 H 1.16539 -1.34399 1.87746
 H 0.907058 -1.98863 0.245581
 H -0.477003 -1.70039 1.31109
 O 3.30604 -0.0381923 -0.00167798
 H 3.10365 0.714761 0.608819
 H 2.5069 -0.108623 -0.582188
