13
Potential is -0.00788443 compared with the distance is infinite.
 O -0.353586 -0.632841 -0.0614559
 O 0.353586 0.632841 0.061456
 C -0.329182 -0.964063 -1.45322
 H -0.855995 -1.90267 -1.52854
 H 0.689592 -1.07361 -1.79152
 H -0.832507 -0.200533 -2.02597
 C 0.329185 0.964061 1.45322
 H 0.856079 1.90262 1.52855
 H 0.832385 0.200472 2.026
 H -0.689593 1.07375 1.79147
 O 3.38543 0.0237353 0.0527601
 H 3.5191 0.225843 -0.907394
 H 2.61858 -0.602539 0.0700532
