13
Potential is -0.00789809 compared with the distance is infinite.
 O 0.156554 -0.486203 0.518058
 O -0.156554 0.486203 -0.518059
 C -0.735096 -1.58553 0.308839
 H -0.491541 -2.29681 1.08275
 H -0.571264 -2.01666 -0.666674
 H -1.7586 -1.25751 0.404753
 C 0.735099 1.58552 -0.308841
 H 0.491606 2.29677 -1.08281
 H 1.75861 1.2575 -0.404615
 H 0.571159 2.01674 0.666623
 O 3.88436 0.0313753 0.0493694
 H 3.86862 0.255447 -0.915076
 H 3.28606 -0.753395 0.131548
