13
Potential is -0.00634502 compared with the distance is infinite.
 O -0.0950042 -0.69966 0.17532
 O 0.0950039 0.69966 -0.17532
 C -0.525418 -0.708795 1.53986
 H -0.661935 -1.75064 1.78506
 H -1.45574 -0.171359 1.63986
 H 0.230282 -0.267315 2.17102
 C 0.525415 0.708795 -1.53987
 H 0.661842 1.75064 -1.78509
 H -0.230216 0.267193 -2.17102
 H 1.45581 0.171473 -1.63983
 O 3.42697 0.0462476 -0.0439695
 H 4.16429 0.145484 0.609582
 H 3.10116 -0.879467 0.0882463
