13
Potential is -0.00869081 compared with the distance is infinite.
 O -0.422745 0.523702 0.276243
 O 0.422745 -0.523702 -0.276243
 C 0.373927 1.1974 1.25541
 H -0.264894 1.96949 1.65537
 H 1.24615 1.63074 0.790888
 H 0.668149 0.509259 2.03275
 C -0.373926 -1.19739 -1.25541
 H 0.264926 -1.96943 -1.65544
 H -0.66827 -0.509238 -2.03268
 H -1.24607 -1.63085 -0.790852
 O 3.47879 0.0204122 -0.0579405
 H 3.64899 0.360746 0.856288
 H 2.79416 -0.684702 0.0632694
