44
  This energy is -16.5332 and Call times are: 130
C	0.600607	-0.769513	3.34063
C	0.701215	-1.07212	1.89514
O	1.4221	-1.97147	1.48537
H	1.26862	-1.45454	3.90665
H	-0.44306	-0.915068	3.69036
H	0.912574	0.278362	3.53486
N	-0.031108	-0.312272	1.07738
C	-0.00509248	-0.458518	-0.356664
C	-0.321071	0.890121	-0.97544
O	-0.703655	1.82843	-0.27908
H	-0.581546	0.442576	1.42248
H	0.995113	-0.730746	-0.669893
C	-1.02595	-1.52011	-0.821559
H	-2.05357	-1.236	-0.509611
H	-1.00575	-1.65191	-1.92281
H	-0.780128	-2.49677	-0.350336
N	-0.158973	1.02059	-2.30688
C	-0.429854	2.26802	-2.98269
H	0.155412	0.251142	-2.85294
H	-0.236565	2.17409	-4.07404
H	0.217301	3.08104	-2.58085
H	-1.49258	2.57001	-2.83934
C	4.28506	-0.603981	-0.871287
C	5.70838	-0.399421	-1.22267
O	6.11959	-0.621862	-2.35309
H	3.73761	-0.982268	-1.76182
H	3.82855	0.355649	-0.549646
H	4.19632	-1.34825	-0.0519816
N	6.50504	0.0344384	-0.243143
C	7.92105	0.238962	-0.42107
C	8.60148	0.0273384	0.918259
O	7.94052	-0.104219	1.94663
H	6.16393	0.171867	0.682389
H	8.30747	-0.50994	-1.1011
C	8.21041	1.65815	-0.957176
H	7.82349	2.42687	-0.254748
H	9.29643	1.82322	-1.11153
H	7.69632	1.79344	-1.93378
N	9.94817	-0.0189485	0.935034
C	10.6823	-0.221923	2.16224
H	10.4654	0.085455	0.0920588
H	11.7776	-0.22967	1.96859
H	10.4025	-1.19297	2.63132
H	10.4607	0.590409	2.89174
