44
  This energy is -16.5616 and Call times are: 160
C	-3.31825	0.0722015	-1.04723
C	-1.86642	0.196224	-1.30792
O	-1.43131	0.258072	-2.44952
H	-3.86317	0.0324164	-2.01541
H	-3.67912	0.947622	-0.467447
H	-3.52686	-0.858724	-0.478943
N	-1.07201	0.233544	-0.235588
C	0.364626	0.308893	-0.330313
C	0.955199	-0.356307	0.898625
O	0.237338	-0.695652	1.83737
H	-1.43766	0.140941	0.686144
H	0.695825	-0.255443	-1.19314
C	0.834701	1.77665	-0.43018
H	0.504211	2.35349	0.459799
H	1.93828	1.84735	-0.517589
H	0.384134	2.24576	-1.332
N	2.28615	-0.566702	0.917032
C	2.93613	-1.19812	2.04176
H	2.84986	-0.288866	0.146246
H	4.03142	-1.28163	1.86693
H	2.52855	-2.22176	2.20703
H	2.77341	-0.607377	2.97219
C	7.17844	2.44379	2.40958
C	6.27265	1.56527	1.63569
O	5.09685	1.43629	1.94755
H	6.61727	2.89524	3.25641
H	7.56791	3.25736	1.76215
H	8.0284	1.85522	2.81484
N	6.81088	0.929396	0.592441
C	6.06637	0.00811716	-0.229445
C	7.03715	-1.01021	-0.797044
O	8.25092	-0.864525	-0.665758
H	7.77935	1.01268	0.375656
H	5.35875	-0.530373	0.388553
C	5.33465	0.751924	-1.36812
H	6.06114	1.29595	-2.00866
H	4.74656	0.0550471	-1.99981
H	4.63563	1.4973	-0.929797
N	6.52044	-2.07684	-1.43839
C	7.3667	-3.10021	-2.00648
H	5.53556	-2.17938	-1.53094
H	6.75453	-3.89272	-2.49063
H	7.99331	-3.57473	-1.21688
H	8.04817	-2.66576	-2.77329
