44
  This energy is -14.63 and Call times are: 102
C	-2.45511	-1.91619	-1.55348
C	-1.52056	-1.65234	-0.436282
O	-1.58714	-2.28625	0.607817
H	-3.16564	-2.71793	-1.25641
H	-1.89357	-2.24841	-2.45183
H	-3.03046	-0.99793	-1.7961
N	-0.61473	-0.691857	-0.634572
C	0.333539	-0.292287	0.375225
C	0.682109	1.16632	0.146021
O	0.307284	1.75155	-0.86824
H	-0.599332	-0.156718	-1.47437
H	-0.131869	-0.363326	1.35041
C	1.60409	-1.16835	0.316404
H	2.08776	-1.0876	-0.680378
H	2.33626	-0.879545	1.0981
H	1.32421	-2.23214	0.478748
N	1.40588	1.79275	1.09457
C	1.78029	3.18176	0.965457
H	1.69647	1.3036	1.91027
H	2.37209	3.51312	1.84705
H	0.875289	3.82696	0.888278
H	2.39579	3.3395	0.0503514
C	8.97115	0.046469	-3.41317
C	8.6807	0.45701	-2.02096
O	7.88013	1.3495	-1.77813
H	8.37854	0.675208	-4.11271
H	8.69396	-1.01803	-3.56399
H	10.0508	0.18208	-3.63479
N	9.33871	-0.195892	-1.06017
C	9.19381	0.120251	0.338975
C	10.4895	-0.238804	1.04167
O	11.3727	-0.861207	0.454849
H	10.0176	-0.892016	-1.2754
H	9.05118	1.18782	0.451069
C	8.00923	-0.652486	0.959372
H	8.16013	-1.74801	0.854003
H	7.87865	-0.407055	2.03326
H	7.07313	-0.380309	0.424607
N	10.6367	0.155694	2.3218
C	11.8377	-0.135933	3.06931
H	9.91262	0.661973	2.77837
H	11.7668	0.271428	4.10192
H	12.7278	0.316036	2.57456
H	12.0015	-1.23584	3.13655
