44
  This energy is -14.647 and Call times are: 74
C	-3.45985	-0.103366	-0.362503
C	-2.2313	0.423411	0.273338
O	-2.2663	1.40716	0.999575
H	-4.3235	0.536687	-0.0790951
H	-3.65372	-1.14124	-0.0190151
H	-3.35297	-0.0939023	-1.46775
N	-1.09819	-0.230569	0.00733024
C	0.183369	0.188002	0.518175
C	1.25171	-0.256377	-0.463015
O	0.974932	-1.00261	-1.40016
H	-1.07925	-1.00514	-0.618412
H	0.214798	1.26957	0.5613
C	0.445125	-0.417508	1.91463
H	0.423447	-1.52723	1.86891
H	1.42289	-0.0914944	2.32476
H	-0.352954	-0.0855239	2.61406
N	2.50457	0.202316	-0.273394
C	3.5853	-0.16252	-1.15946
H	2.7082	0.808579	0.488217
H	4.53654	0.315439	-0.837088
H	3.3653	0.162908	-2.20204
H	3.73224	-1.26683	-1.16625
C	12.7851	1.36179	2.08048
C	12.0606	1.29627	0.791318
O	12.2	2.1655	-0.0580419
H	13.4016	2.2865	2.10876
H	13.4528	0.48136	2.18944
H	12.0636	1.38496	2.92421
N	11.2551	0.246115	0.615972
C	10.4521	0.0669809	-0.567943
C	9.21751	-0.727786	-0.186282
O	9.11784	-1.24063	0.926716
H	11.1207	-0.431829	1.33304
H	10.1167	1.0339	-0.921732
C	11.2489	-0.666081	-1.66929
H	11.5843	-1.66248	-1.31045
H	10.646	-0.797784	-2.59104
H	12.1518	-0.070562	-1.92707
N	8.23829	-0.841429	-1.1051
C	7.02449	-1.57417	-0.829505
H	8.33545	-0.415986	-1.99876
H	6.34361	-1.55218	-1.7088
H	6.48756	-1.13169	0.0406643
H	7.25332	-2.63774	-0.589494
