44
  This energy is 0 and Call times are: 186
C	2.58772	1.52792	-1.75552
C	1.52169	0.508565	-1.63049
O	1.17174	-0.162524	-2.59153
H	2.94608	1.55747	-2.80746
H	3.44082	1.27284	-1.09228
H	2.1936	2.52936	-1.48189
N	0.971701	0.370211	-0.421878
C	-0.105718	-0.549819	-0.154908
C	-0.928669	0.00559765	0.992184
O	-0.540248	0.981548	1.63122
H	1.23879	0.952216	0.34088
H	-0.753627	-0.602176	-1.02099
C	0.439921	-1.9507	0.198718
H	1.09626	-1.89923	1.09348
H	-0.380345	-2.67179	0.392913
H	1.04535	-2.3341	-0.651464
N	-2.09722	-0.602909	1.27543
C	-2.9499	-0.141168	2.3459
H	-2.39659	-1.38875	0.744477
H	-3.86378	-0.770873	2.42019
H	-3.26414	0.913273	2.17074
H	-2.41398	-0.184134	3.32165
C	22.5335	-2.76091	2.06701
C	22.6993	-2.14681	0.730387
O	22.8923	-2.83457	-0.262669
H	22.6324	-3.86468	1.97891
H	21.5295	-2.52157	2.47624
H	23.3146	-2.38435	2.76069
N	22.6286	-0.814719	0.676405
C	22.8131	-0.0718142	-0.545321
C	23.3668	1.29488	-0.188799
O	23.4279	1.66365	0.982516
H	22.5119	-0.266232	1.49944
H	23.5539	-0.570184	-1.15805
C	21.4802	0.0673983	-1.31297
H	20.723	0.588003	-0.688677
H	21.6117	0.625661	-2.26247
H	21.0895	-0.944724	-1.55645
N	23.7936	2.07929	-1.19802
C	24.3409	3.39356	-0.954365
H	23.7399	1.7618	-2.13896
H	24.6349	3.88055	-1.91022
H	25.242	3.32911	-0.302282
H	23.5923	4.04294	-0.4455
