13
	Energy:      10.8226741
 C 0.212168 -0.353885 -1.14972
 N 0.0920586 -0.717049 -2.51132
 H -0.83034 -0.706633 -2.97011
 H 0.921389 -0.994605 -3.05657
 N -0.893109 0.00961704 -0.446079
 C -0.804728 0.362907 0.8632
 O -1.8088 0.684844 1.47279
 N 0.414119 0.356591 1.49628
 C 1.53901 -0.00150662 0.822503
 H 0.482784 0.628205 2.50323
 C 1.46049 -0.36574 -0.520542
 H 2.49643 -0.0041679 1.32803
 H 2.35379 -0.651762 -1.06149
