15
Potential is -0.00683714 compared with the distance is infinite.
 C -1.04362 0.926847 -0
 C 0.280865 1.36723 -0
 C 1.32449 0.440377 -0
 H 0.499105 2.42961 0
 C 1.04363 -0.926843 -0
 H 2.35366 0.782567 -0
 C -1.32448 -0.440383 -0
 H -1.85455 1.64704 0
 C -0.280865 -1.36722 -0
 H 1.85456 -1.64704 -0
 H -2.35365 -0.782573 -0
 H -0.499105 -2.42961 -0
 O 4.88083 0.0211178 0.0512078
 H 5.87016 0.00477778 0.0115878
 H 4.59147 -0.339932 -0.824292
