15
Potential is -0.0072829 compared with the distance is infinite.
 C -0.0511398 -0.423866 1.32888
 C 1.02831 0.339153 0.880768
 C 1.07944 0.763015 -0.448111
 H 1.82734 0.602685 1.56515
 C 0.0511422 0.423866 -1.32888
 H 1.91821 1.3559 -0.796306
 C -1.07945 -0.763016 0.448106
 H -0.0908768 -0.753223 2.36146
 C -1.02831 -0.339152 -0.880765
 H 0.090873 0.753222 -2.36147
 H -1.91821 -1.35591 0.796302
 H -1.82734 -0.602685 -1.56516
 O 4.53869 0.0306456 0.0575651
 H 4.15385 -0.875471 -0.049471
 H 4.58946 0.389103 -0.864128
