15
Potential is -0.00767542 compared with the distance is infinite.
 C -1.05959 -0.364354 0.832296
 C -0.297668 -1.34878 0.200955
 C 0.761919 -0.984421 -0.631338
 H -0.528966 -2.39682 0.357105
 C 1.05959 0.36435 -0.832295
 H 1.35395 -1.74935 -1.12191
 C -0.761916 0.984426 0.631337
 H -1.88292 -0.647468 1.47902
 C 0.297667 1.34878 -0.200954
 H 1.88293 0.647474 -1.47902
 H -1.35395 1.74936 1.12191
 H 0.528969 2.39683 -0.357106
 O 4.27425 0.0415024 -0.0494198
 H 4.49264 -0.916928 0.0702864
 H 3.68203 0.258256 0.714041
