15
Potential is -0.00836589 compared with the distance is infinite.
 C -0.864732 -1.04158 -0.339917
 C -0.0916283 -1.12644 0.819098
 C 0.773101 -0.0848606 1.15901
 H -0.162827 -2.00173 1.45556
 C 0.864731 1.04158 0.339919
 H 1.37383 -0.150802 2.0596
 C -0.7731 0.084866 -1.15901
 H -1.53666 -1.85092 -0.604044
 C 0.0916276 1.12644 -0.819097
 H 1.53666 1.85093 0.604041
 H -1.37383 0.150807 -2.05961
 H 0.162829 2.00173 -1.45557
 O 4.13572 0.0427019 0.0313402
 H 4.2438 -0.93319 -0.0973589
 H 3.27014 0.255479 -0.400032
