15
Potential is -0.00773815 compared with the distance is infinite.
 C -0.269557 -1.24577 -0.568848
 C 0.545894 -0.333583 -1.24053
 C 0.815448 0.912187 -0.671678
 H 0.970072 -0.592789 -2.20446
 C 0.269558 1.24577 0.568845
 H 1.44908 1.62099 -1.1936
 C -0.81545 -0.912184 0.671684
 H -0.479012 -2.21378 -1.01086
 C -0.545893 0.333581 1.24053
 H 0.47901 2.21378 1.01087
 H -1.44908 -1.62098 1.1936
 H -0.970073 0.592791 2.20447
 O 4.36247 0.0351445 -0.015908
 H 3.75911 -0.454723 -0.629578
 H 3.96857 -0.103045 0.88205
