15
Potential is -0.00706635 compared with the distance is infinite.
 C 0.517164 0.127802 1.29012
 C -0.309508 -0.951309 0.97335
 C -0.826668 -1.07911 -0.316769
 H -0.550004 -1.69051 1.72968
 C -0.517164 -0.127804 -1.29012
 H -1.46902 -1.91761 -0.562907
 C 0.826669 1.07911 0.316764
 H 0.919017 0.227107 2.29258
 C 0.309507 0.951307 -0.973347
 H -0.919016 -0.227104 -2.29259
 H 1.46902 1.91761 0.562902
 H 0.550005 1.69051 -1.72968
 O 4.69223 -0.0122887 -0.0123649
 H 4.29164 0.371778 0.807775
 H 3.92117 -0.176748 -0.611534
