16
Potential is -0.0195041 compared with the distance is infinite.
 C -1.15749 0.192853 -0.339298
 N -2.52446 0.552272 -0.389175
 H -2.97597 0.984483 0.429817
 H -3.08091 0.386671 -1.24068
 N -0.439014 0.41896 0.792756
 C 0.875704 0.0829151 0.866412
 O 1.49864 0.295225 1.89124
 N 1.49926 -0.494507 -0.212559
 C 0.810588 -0.734488 -1.35961
 H 2.51039 -0.753194 -0.156568
 C -0.538164 -0.394063 -1.44667
 H 1.30867 -1.18998 -2.20616
 H -1.09097 -0.583268 -2.35828
 O 4.38353 -0.0429296 -0.0498801
 H 5.21436 0.48775 0.0434552
 H 3.8471 0.193574 0.748178
