16
Potential is -0.0109655 compared with the distance is infinite.
 C -0.277114 0.778605 -0.899489
 N -0.431645 1.4232 -2.14884
 H -0.0712966 0.981455 -3.007
 H -0.90383 2.33693 -2.2142
 N 0.348583 -0.426756 -0.832522
 C 0.509856 -1.06684 0.355383
 O 1.07367 -2.14587 0.39034
 N 0.037896 -0.497549 1.51279
 C -0.592347 0.706363 1.48163
 H 0.161601 -0.989318 2.42673
 C -0.763458 1.37203 0.269111
 H -0.961802 1.14912 2.39798
 H -1.26486 2.33126 0.239228
 O 3.85708 0.0642137 -0.0207075
 H 4.5716 -0.599133 0.152626
 H 3.01599 -0.419985 0.176018
