16
Potential is -0.0107726 compared with the distance is infinite.
 C 0.447729 1.1333 -0.0852241
 N 1.28462 2.2732 -0.108022
 H 2.29483 2.17698 0.0698859
 H 0.895261 3.20753 -0.30178
 N 0.979137 -0.0915422 0.172149
 C 0.196788 -1.2024 0.199778
 O 0.695582 -2.28888 0.432526
 N -1.15263 -1.09899 -0.0343019
 C -1.71641 0.110106 -0.294743
 H -1.7549 -1.95296 -0.0132041
 C -0.923914 1.25623 -0.325639
 H -2.78086 0.184053 -0.478321
 H -1.36843 2.22161 -0.532668
 O 4.16471 -0.020325 -0.00153404
 H 3.76094 0.673865 0.577848
 H 3.41212 -0.351292 -0.553501
