16
Potential is -0.0112531 compared with the distance is infinite.
 C 0.920098 -0.139079 0.791311
 N 1.76207 -0.103213 1.92712
 H 1.45761 0.385228 2.78161
 H 2.68442 -0.562764 1.91259
 N -0.293576 0.472856 0.828821
 C -1.12128 0.453013 -0.248841
 O -2.20377 1.00827 -0.191458
 N -0.737088 -0.191788 -1.39908
 C 0.469447 -0.813675 -1.47058
 H -1.3732 -0.207427 -2.22827
 C 1.3266 -0.79988 -0.371623
 H 0.765661 -1.32 -2.38059
 H 2.28872 -1.29386 -0.42377
 O 4.5317 -0.0647897 0.00834928
 H 4.70435 0.411534 -0.842485
 H 4.68611 0.616726 0.709975
