16
Potential is -0.012817 compared with the distance is infinite.
 C -0.017309 -0.529964 -1.10043
 N 0.0197862 -1.44945 -2.17441
 H 0.169105 -2.45236 -1.99191
 H -0.101465 -1.12812 -3.14609
 N 0.144556 -0.972186 0.175159
 C 0.113095 -0.109337 1.2246
 O 0.260527 -0.529013 2.35842
 N -0.0845173 1.23216 1.00606
 C -0.249826 1.70788 -0.256454
 H -0.108828 1.89631 1.81275
 C -0.219434 0.832329 -1.34046
 H -0.40516 2.76664 -0.421186
 H -0.350629 1.20655 -2.34802
 O 3.08491 0.0222284 -0.0622949
 H 3.87167 0.257309 0.491207
 H 2.56777 -0.61009 0.497459
