16
Potential is -0.0201992 compared with the distance is infinite.
 C -0.0311859 -1.11452 -0.498969
 N 0.272389 -2.42635 -0.931653
 H 1.18331 -2.84916 -0.701715
 H -0.410546 -2.97079 -1.47876
 N 0.882246 -0.411182 0.222027
 C 0.615197 0.85083 0.649633
 O 1.44919 1.46117 1.2941
 N -0.592279 1.43544 0.355269
 C -1.52793 0.760504 -0.363475
 H -0.798299 2.40603 0.683847
 C -1.26513 -0.534319 -0.807288
 H -2.47759 1.22767 -0.591783
 H -2.00732 -1.07599 -1.38015
 O 3.86357 -0.00824459 -0.0221973
 H 3.02348 -0.25979 -0.482167
 H 3.56755 0.390638 0.834454
