16
Potential is -0.0103357 compared with the distance is infinite.
 C -0.582362 -1.06814 -0.10972
 N -1.45432 -2.17076 0.0457669
 H -2.18094 -2.15677 0.776003
 H -1.37288 -2.99588 -0.566346
 N -0.704682 0.0120061 0.707108
 C 0.120463 1.08411 0.578436
 O -0.00834647 2.04023 1.32183
 N 1.09667 1.08835 -0.387701
 C 1.24645 0.0249667 -1.22098
 H 1.73162 1.9126 -0.487196
 C 0.405983 -1.0801 -1.09833
 H 2.01819 0.0352758 -1.98028
 H 0.521409 -1.92955 -1.75978
 O 4.14221 -0.00866387 -0.0344622
 H 4.77355 -0.705795 0.275423
 H 4.54362 0.843297 0.271517
