16
Potential is -0.00987506 compared with the distance is infinite.
 C 0.562413 -0.930675 -0.556448
 N 0.870548 -2.08184 -1.31812
 H 0.124401 -2.58606 -1.81857
 H 1.83958 -2.42709 -1.38057
 N -0.721882 -0.489718 -0.485579
 C -1.04431 0.613631 0.239334
 O -2.20178 0.989527 0.28786
 N -0.066706 1.30223 0.915017
 C 1.22719 0.888754 0.865546
 H -0.314013 2.1509 1.47272
 C 1.56964 -0.24145 0.125298
 H 1.99255 1.43652 1.40071
 H 2.59899 -0.574709 0.0828638
 O 4.95512 -0.0505357 -0.00584772
 H 5.23055 0.42318 0.818981
 H 5.48175 0.378857 -0.726173
