16
Potential is -0.0173199 compared with the distance is infinite.
 C -0.160907 0.522277 1.09244
 N 0.0223963 1.14193 2.3505
 H 0.971985 1.35335 2.68962
 H -0.787497 1.38744 2.93865
 N 0.919526 0.205587 0.330046
 C 0.77056 -0.390174 -0.882272
 O 1.75342 -0.664385 -1.54725
 N -0.485451 -0.681796 -1.35536
 C -1.58699 -0.378749 -0.618916
 H -0.600715 -1.13999 -2.28768
 C -1.44641 0.232338 0.625838
 H -2.57399 -0.61157 -0.998206
 H -2.3209 0.475671 1.21615
 O 4.24841 0.0211906 -0.0425388
 H 4.30945 -0.0867081 0.939929
 H 3.32221 -0.249603 -0.264807
