16
Potential is -0.0151369 compared with the distance is infinite.
 C -0.875706 0.807733 -0.269821
 N -2.095 1.51686 -0.373459
 H -2.93853 1.16813 0.1043
 H -2.15279 2.38551 -0.925043
 N -0.818309 -0.336574 0.462398
 C 0.340825 -1.03652 0.577813
 O 0.367734 -2.05887 1.23922
 N 1.47831 -0.591277 -0.0501328
 C 1.45597 0.54879 -0.789951
 H 2.37012 -1.12913 0.0382354
 C 0.272904 1.27488 -0.915407
 H 2.3565 0.893763 -1.28217
 H 0.250154 2.18364 -1.50366
 O 4.48309 0.00447568 -0.0102838
 H 5.18754 0.625612 -0.324209
 H 4.97432 -0.696644 0.487421
