16
Potential is -0.016292 compared with the distance is infinite.
 C 0.294942 1.00677 0.625715
 N 0.949301 2.14347 1.15486
 H 1.89425 2.39442 0.830019
 H 0.490581 2.73006 1.86733
 N 0.91568 0.244564 -0.313754
 C 0.308739 -0.852521 -0.838028
 O 0.884718 -1.51981 -1.67848
 N -0.950833 -1.2069 -0.420513
 C -1.59986 -0.467075 0.51704
 H -1.41819 -2.05054 -0.823337
 C -0.987247 0.660122 1.06177
 H -2.59263 -0.752423 0.841396
 H -1.50025 1.25262 1.80888
 O 3.85225 0.039442 -0.0177844
 H 3.87891 -0.905406 0.277448
 H 2.89179 0.279433 0.00480448
