16
Potential is -0.0207836 compared with the distance is infinite.
 C -0.145896 -0.665061 1.01415
 N 0.0200382 -1.29909 2.26745
 H 0.880332 -1.14802 2.81379
 H -0.713787 -1.91585 2.64591
 N 0.833039 0.145388 0.53069
 C 0.698211 0.766263 -0.670631
 O 1.58873 1.48764 -1.08293
 N -0.439665 0.580057 -1.41695
 C -1.43772 -0.223511 -0.963356
 H -0.543993 1.05728 -2.34096
 C -1.31049 -0.865425 0.267237
 H -2.33188 -0.36565 -1.55707
 H -2.10283 -1.50651 0.632787
 O 3.93151 -0.0486071 0.0353101
 H 4.26356 0.431721 -0.764465
 H 3.03635 0.339709 0.204068
