16
Potential is -0.0110959 compared with the distance is infinite.
 C 0.304201 -1.11241 -0.402622
 N 0.654778 -2.47858 -0.50718
 H 0.749956 -3.05471 0.34161
 H 0.818018 -2.91048 -1.42857
 N 0.0925867 -0.559665 0.821539
 C -0.245222 0.750453 0.949257
 O -0.42978 1.22321 2.05643
 N -0.377895 1.53835 -0.167901
 C -0.173522 1.01779 -1.40678
 H -0.637688 2.54603 -0.0703672
 C 0.173318 -0.32452 -1.54997
 H -0.279871 1.64486 -2.28297
 H 0.337145 -0.743742 -2.53477
 O 3.32507 -0.0171112 -0.0606734
 H 3.43294 0.842293 0.419325
 H 2.76924 -0.570727 0.543606
