16
Potential is -0.0117081 compared with the distance is infinite.
 C -0.556929 0.152689 1.07639
 N -0.87737 0.482191 2.41393
 H -0.180005 0.946235 3.01374
 H -1.80692 0.26291 2.8012
 N 0.674631 0.449734 0.582525
 C 1.00752 0.143745 -0.699034
 O 2.11695 0.419723 -1.11903
 N 0.0945107 -0.47504 -1.51754
 C -1.14552 -0.786109 -1.05587
 H 0.349897 -0.710644 -2.50329
 C -1.49809 -0.477093 0.256687
 H -1.8601 -1.27388 -1.70678
 H -2.48468 -0.722905 0.628999
 O 4.9175 0.00416682 0.0654118
 H 4.13206 -0.456503 -0.323793
 H 5.39017 0.390373 -0.71434
