16
Potential is -0.0190271 compared with the distance is infinite.
 C 0.287481 0.16435 -1.17577
 N 0.935873 0.482012 -2.39189
 H 1.88559 0.881245 -2.38293
 H 0.468012 0.318529 -3.2955
 N 0.920321 0.38689 0.00696412
 C 0.319324 0.0904194 1.18923
 O 0.906157 0.298613 2.23597
 N -0.946456 -0.442542 1.20245
 C -1.60759 -0.677669 0.0383214
 H -1.40925 -0.670789 2.11139
 C -1.00117 -0.377574 -1.1802
 H -2.6052 -1.09799 0.056405
 H -1.52382 -0.563092 -2.11016
 O 3.84951 0.0404272 -0.0227348
 H 3.79605 -0.946419 -0.0850866
 H 3.01821 0.30481 0.445904
