16
Potential is -0.0181695 compared with the distance is infinite.
 C -1.22049 0.0484502 -0.0126275
 N -2.57885 0.337438 0.254962
 H -2.82985 0.98478 1.01612
 H -3.32847 -0.0940127 -0.305446
 N -0.2449 0.627118 0.737205
 C 1.06762 0.366141 0.500527
 O 1.92372 0.896487 1.18552
 N 1.42659 -0.49352 -0.508701
 C 0.476814 -1.08911 -1.27731
 H 2.43588 -0.69466 -0.691257
 C -0.872405 -0.828984 -1.04377
 H 0.767173 -1.76569 -2.07114
 H -1.63264 -1.30103 -1.65338
 O 4.14248 -0.0287996 -0.0215591
 H 5.05175 -0.420994 -0.0159117
 H 4.26108 0.878065 0.35807
