16
Potential is -0.0219732 compared with the distance is infinite.
 C -1.15063 0.307703 -0.271042
 N -2.37932 0.559947 -0.924474
 H -2.47512 0.37863 -1.93411
 H -3.18793 0.925929 -0.40071
 N -0.0944895 -0.175217 -0.978312
 C 1.09677 -0.425953 -0.37426
 O 2.02853 -0.85839 -1.02864
 N 1.24843 -0.191985 0.970611
 C 0.213103 0.290533 1.7074
 H 2.16436 -0.384621 1.4358
 C -1.01326 0.551407 1.09865
 H 0.339924 0.47258 2.76712
 H -1.84093 0.935833 1.68139
 O 4.16979 0.025037 0.0553419
 H 5.11362 0.136374 -0.222868
 H 3.76588 -0.53373 -0.655448
