16
Potential is -0.00933487 compared with the distance is infinite.
 C -0.984849 -0.721497 0.0401561
 N -2.18713 -1.3728 0.401536
 H -2.67756 -1.10984 1.26857
 H -2.5837 -2.11358 -0.19521
 N -0.47649 0.253672 0.83984
 C 0.67697 0.894775 0.515259
 O 1.11288 1.76506 1.24736
 N 1.3485 0.561386 -0.635531
 C 0.868151 -0.40879 -1.45748
 H 2.23568 1.05408 -0.88575
 C -0.31388 -1.07307 -1.13479
 H 1.40285 -0.666342 -2.36301
 H -0.700483 -1.84661 -1.7864
 O 4.38696 -0.0216169 0.0126871
 H 5.01331 -0.352046 -0.679491
 H 4.88719 0.695121 0.478138
