16
Potential is -0.0160119 compared with the distance is infinite.
 C -1.19475 0.0749576 -0.243008
 N -2.59776 -0.102013 -0.265677
 H -3.04221 -0.792743 0.356239
 H -3.18776 0.454989 -0.901114
 N -0.432238 -0.668892 0.602061
 C 0.917729 -0.518124 0.643212
 O 1.57982 -1.19583 1.40855
 N 1.53273 0.396355 -0.176497
 C 0.80044 1.15623 -1.03319
 H 2.57095 0.512807 -0.145336
 C -0.584733 1.01026 -1.08408
 H 1.29204 1.87511 -1.67643
 H -1.17234 1.6133 -1.76486
 O 4.34753 0.0443023 0.0513182
 H 4.80985 0.148971 -0.818113
 H 3.92942 -0.85208 0.00365577
