16
Potential is -0.00973895 compared with the distance is infinite.
 C 0.240912 1.14751 -0.342455
 N 0.182178 2.53684 -0.600495
 H -0.654642 3.07703 -0.337159
 H 0.971516 3.02152 -1.05234
 N -0.810165 0.524911 0.254607
 C -0.778806 -0.808816 0.513499
 O -1.73249 -1.3444 1.04925
 N 0.325908 -1.5498 0.171492
 C 1.394 -0.959054 -0.426657
 H 0.350668 -2.57561 0.370334
 C 1.37308 0.408077 -0.697053
 H 2.26145 -1.54945 -0.693465
 H 2.2215 0.883165 -1.17338
 O 4.64436 -0.0330707 -0.020307
 H 5.07675 0.747065 -0.450467
 H 5.20638 -0.22221 0.772754
