16
Potential is -0.0117838 compared with the distance is infinite.
 C -0.823515 0.866253 0.252044
 N -2.00494 1.57849 0.563847
 H -2.89257 1.07365 0.700472
 H -1.991 2.60475 0.657295
 N -0.860947 -0.487721 0.132748
 C 0.260028 -1.19549 -0.166106
 O 0.201782 -2.40779 -0.267778
 N 1.45488 -0.544413 -0.352756
 C 1.52765 0.80828 -0.240909
 H 2.3174 -1.08817 -0.58262
 C 0.384502 1.54456 0.0652144
 H 2.47296 1.31479 -0.38939
 H 0.437465 2.62228 0.155363
 O 4.53357 0.0522307 -0.0400543
 H 5.3948 -0.435045 -0.00203805
 H 3.96597 -0.393893 0.637729
