16
Potential is -0.0097024 compared with the distance is infinite.
 C 0.614925 -0.85202 -0.622918
 N 1.411 -1.55035 -1.56041
 H 1.84025 -1.04781 -2.35073
 H 1.56958 -2.56408 -1.46382
 N 0.416712 0.485517 -0.766386
 C -0.343819 1.17969 0.120491
 O -0.507036 2.37738 -0.0288168
 N -0.926334 0.531357 1.18198
 C -0.748679 -0.805071 1.35514
 H -1.51137 1.06466 1.86444
 C 0.0292462 -1.52731 0.451919
 H -1.21094 -1.30952 2.19423
 H 0.173671 -2.59205 0.585653
 O 3.63541 -0.0395489 0.0531542
 H 3.00454 0.473617 -0.511885
 H 4.52703 0.154054 -0.33171
