16
Potential is -0.0123122 compared with the distance is infinite.
 C -0.40206 -1.08993 0.377488
 N -0.837887 -2.1933 1.14749
 H -0.888924 -2.12002 2.17387
 H -1.10773 -3.07795 0.692833
 N -0.0500673 0.0693987 0.994686
 C 0.371959 1.14405 0.277849
 O 0.681947 2.17191 0.853005
 N 0.448298 1.07012 -1.0915
 C 0.104022 -0.0735821 -1.74035
 H 0.772793 1.89628 -1.64342
 C -0.330207 -1.18208 -1.01559
 H 0.166705 -0.124621 -2.82002
 H -0.605544 -2.09535 -1.52797
 O 3.37409 0.00426858 -0.0632758
 H 2.80525 0.659238 0.414269
 H 3.51242 -0.726984 0.589963
