16
Potential is -0.0103503 compared with the distance is infinite.
 C 1.01557 0.677213 0.0459125
 N 2.14256 1.42258 0.463751
 H 2.34244 1.53925 1.46767
 H 2.7728 1.85488 -0.227653
 N 0.195113 0.113958 0.972455
 C -0.894102 -0.606899 0.597207
 O -1.61438 -1.10198 1.44544
 N -1.18093 -0.776057 -0.735285
 C -0.381734 -0.226555 -1.6876
 H -2.01849 -1.33036 -1.02456
 C 0.738049 0.514748 -1.31457
 H -0.614007 -0.364043 -2.73611
 H 1.37769 0.954422 -2.06953
 O 4.87124 0.0644158 -0.00129886
 H 5.30824 -0.7263 -0.406773
 H 4.05461 -0.296025 0.427387
