16
Potential is -0.00930394 compared with the distance is infinite.
 C 0.331532 -0.692091 0.950366
 N 0.914733 -1.19394 2.13708
 H 1.56384 -0.608415 2.68227
 H 0.698002 -2.1457 2.46771
 N 0.629168 0.566142 0.529485
 C 0.0822926 1.07191 -0.607161
 O 0.364008 2.20178 -0.964117
 N -0.785661 0.310076 -1.35059
 C -1.10479 -0.951679 -0.958534
 H -1.20662 0.698466 -2.22488
 C -0.550047 -1.48088 0.205423
 H -1.78973 -1.54646 -1.54957
 H -0.801224 -2.48549 0.521809
 O 3.36206 -0.0411217 -0.0383702
 H 3.06089 0.730772 0.503927
 H 4.34117 -0.0781417 0.105035
