16
Potential is -0.0148471 compared with the distance is infinite.
 C -0.510915 -1.03966 -0.387531
 N -0.866186 -2.19791 -1.11726
 H -0.392728 -2.41481 -2.0062
 H -1.59861 -2.83422 -0.769714
 N 0.457874 -0.211633 -0.861561
 C 0.817727 0.907443 -0.179643
 O 1.68833 1.63394 -0.624227
 N 0.200643 1.21736 1.00761
 C -0.771775 0.411402 1.51002
 H 0.476943 2.07789 1.53258
 C -1.14908 -0.738922 0.819373
 H -1.25387 0.661993 2.44651
 H -1.92319 -1.38406 1.21557
 O 4.21182 -0.0238878 0.0144862
 H 3.66112 0.598803 0.552623
 H 3.65773 -0.219687 -0.782529
