16
Potential is -0.0210859 compared with the distance is infinite.
 C -0.448551 -0.701686 0.893609
 N -0.623175 -1.64844 1.92967
 H 0.164772 -2.24239 2.22596
 H -1.53558 -1.75406 2.3971
 N 0.762555 -0.576285 0.28832
 C 0.956501 0.325639 -0.709554
 O 2.05041 0.41979 -1.23672
 N -0.0789985 1.12834 -1.12165
 C -1.30258 1.02899 -0.538071
 H 0.0695016 1.82222 -1.88906
 C -1.51319 0.107593 0.486265
 H -2.11423 1.66502 -0.868091
 H -2.48611 0.024766 0.95421
 O 4.44901 0.0417219 0.0214432
 H 3.68078 0.259455 -0.564242
 H 4.34142 -0.921612 0.223923
