16
Potential is -0.0110951 compared with the distance is infinite.
 C -0.401741 0.324989 -1.10684
 N -0.802748 1.04164 -2.2583
 H -0.760358 2.07097 -2.26788
 H -1.13995 0.54478 -3.09589
 N 0.0405156 0.997478 -0.0109136
 C 0.431568 0.33259 1.10794
 O 0.824094 0.956753 2.07734
 N 0.383869 -1.03957 1.14431
 C -0.0530145 -1.74294 0.0663571
 H 0.684491 -1.55155 2.00451
 C -0.4566 -1.07176 -1.08657
 H -0.0879177 -2.82448 0.102199
 H -0.805378 -1.62768 -1.94779
 O 3.29855 -0.0676609 0.00471808
 H 4.07131 0.533802 0.151987
 H 2.55177 0.540025 -0.226866
