16
Potential is -0.0107681 compared with the distance is infinite.
 C -1.11937 0.47446 0.118345
 N -2.28495 1.12436 0.586653
 H -2.2976 1.55228 1.52375
 H -3.12988 1.17673 -0.0011263
 N -0.0138766 0.415217 0.907814
 C 1.1186 -0.203287 0.481459
 O 2.09639 -0.24358 1.20651
 N 1.15927 -0.781035 -0.763922
 C 0.0720274 -0.740067 -1.57866
 H 2.02996 -1.25688 -1.09244
 C -1.0949 -0.108492 -1.15204
 H 0.111332 -1.19766 -2.55911
 H -1.96357 -0.0732738 -1.79748
 O 5.00049 -0.0388981 -0.0232499
 H 4.13141 0.150525 -0.458489
 H 4.96736 0.466816 0.827481
