16
Potential is -0.00909088 compared with the distance is infinite.
 C -0.733867 -0.682406 -0.698469
 N -1.44571 -1.25898 -1.77602
 H -1.31213 -0.90326 -2.73364
 H -2.10231 -2.03706 -1.61602
 N 0.128345 0.343518 -0.928572
 C 0.82431 0.914845 0.0892953
 O 1.59099 1.83265 -0.141414
 N 0.662773 0.457667 1.37433
 C -0.191021 -0.566198 1.63951
 H 1.19774 0.896633 2.15763
 C -0.910081 -1.15983 0.603578
 H -0.313305 -0.921377 2.65495
 H -1.5914 -1.97572 0.809853
 O 3.85513 -0.00571927 0.0505604
 H 4.80655 -0.280322 0.0504646
 H 3.70557 0.371091 -0.852895
