16
Potential is -0.011128 compared with the distance is infinite.
 C -0.462886 1.06213 0.386927
 N -0.660013 2.33176 0.978077
 H 0.107226 2.78747 1.49295
 H -1.56837 2.81242 0.900746
 N 0.742479 0.442969 0.499227
 C 0.957659 -0.777014 -0.0595005
 O 2.0459 -1.31195 0.0544267
 N -0.0500714 -1.40414 -0.750596
 C -1.26716 -0.813358 -0.881931
 H 0.114771 -2.34243 -1.18056
 C -1.49938 0.437703 -0.31314
 H -2.05687 -1.31363 -1.42811
 H -2.46724 0.912327 -0.415067
 O 4.62763 -0.0032279 -0.061874
 H 4.48107 0.802181 0.495303
 H 4.28038 -0.750952 0.486682
