16
Potential is -0.0112514 compared with the distance is infinite.
 C 0.00140498 0.0715443 -1.21942
 N -0.358688 0.212589 -2.57982
 H -1.3391 0.393799 -2.83938
 H 0.35181 0.136052 -3.32243
 N -0.949611 0.17567 -0.253185
 C -0.629766 0.0441532 1.06106
 O -1.49898 0.141428 1.90864
 N 0.67053 -0.197778 1.43136
 C 1.64598 -0.307573 0.491129
 H 0.917193 -0.299024 2.44197
 C 1.32972 -0.174509 -0.859749
 H 2.66885 -0.498361 0.79039
 H 2.10329 -0.26117 -1.6124
 O 4.78344 -0.0546849 0.036573
 H 5.26062 0.757338 0.342391
 H 4.60225 0.11055 -0.922832
