16
Potential is -0.0186063 compared with the distance is infinite.
 C -0.39437 0.641668 -0.961682
 N -0.501392 1.33915 -2.18738
 H 0.317521 1.42592 -2.80647
 H -1.39486 1.76595 -2.47318
 N 0.792603 0.0849512 -0.601072
 C 0.921797 -0.59028 0.571194
 O 1.99522 -1.08042 0.872731
 N -0.155898 -0.71903 1.41287
 C -1.35698 -0.174751 1.08311
 H -0.0572075 -1.23823 2.31461
 C -1.50128 0.519939 -0.116553
 H -2.20217 -0.280219 1.7515
 H -2.45605 0.955266 -0.383601
 O 4.55937 0.0328299 0.000399701
 H 3.78173 0.179143 0.595782
 H 4.27608 -0.700176 -0.602126
