16
Potential is -0.0172522 compared with the distance is infinite.
 C -0.984244 -0.606652 0.394125
 N -1.99679 -1.20281 1.18129
 H -1.9744 -1.11332 2.2074
 H -2.76397 -1.73044 0.739514
 N 0.0202187 0.0858306 0.994459
 C 1.00503 0.668006 0.260935
 O 1.89441 1.28326 0.821162
 N 0.996395 0.562222 -1.10843
 C 0.00713948 -0.12278 -1.74067
 H 1.75351 1.00974 -1.67317
 C -1.00808 -0.723971 -0.998707
 H 0.0067792 -0.202036 -2.82046
 H -1.79826 -1.2707 -1.49783
 O 3.96685 -0.0201076 -0.0556675
 H 4.83063 -0.358381 0.290827
 H 3.69555 0.677502 0.592657
