16
Potential is -0.011424 compared with the distance is infinite.
 C 0.527796 0.571752 -0.94161
 N 1.24385 1.46974 -1.76694
 H 1.70115 2.29684 -1.35682
 H 1.31565 1.3075 -2.78215
 N 0.44375 0.801937 0.395861
 C -0.238144 -0.0454156 1.21063
 O -0.29955 0.181661 2.40565
 N -0.855995 -1.1546 0.686798
 C -0.791813 -1.41457 -0.645822
 H -1.3806 -1.8067 1.31289
 C -0.0953103 -0.552583 -1.49109
 H -1.2813 -2.29084 -1.05175
 H -0.0413743 -0.75546 -2.55332
 O 3.56782 -0.0275402 -0.0593828
 H 2.98403 0.757518 0.0938601
 H 3.83313 -0.320436 0.848587
