16
Potential is -0.00997891 compared with the distance is infinite.
 C -0.0631805 1.15566 0.390575
 N -0.455188 2.37581 0.988764
 H -1.34052 2.43435 1.51238
 H 0.13723 3.21524 0.907883
 N -0.857596 0.0583743 0.507784
 C -0.50381 -1.12573 -0.0575196
 O -1.23177 -2.09497 0.0610237
 N 0.671739 -1.22804 -0.760398
 C 1.48925 -0.150715 -0.896927
 H 0.944425 -2.13844 -1.19541
 C 1.13671 1.06879 -0.321482
 H 2.41441 -0.238741 -1.4524
 H 1.78466 1.92979 -0.427508
 O 4.54914 -0.0334062 -0.0299938
 H 4.81871 0.909645 -0.166352
 H 5.18847 -0.379464 0.642376
