16
Potential is -0.0122334 compared with the distance is infinite.
 C -0.980395 0.259371 0.680919
 N -2.00786 0.907735 1.40494
 H -2.03678 1.93645 1.4533
 H -2.73499 0.361263 1.88949
 N -0.029469 0.99678 0.0477961
 C 0.968273 0.398239 -0.654412
 O 1.80883 1.07983 -1.21325
 N 1.0276 -0.971694 -0.733044
 C 0.0931024 -1.73892 -0.112029
 H 1.7947 -1.43266 -1.27296
 C -0.934741 -1.1361 0.610985
 H 0.146181 -2.81827 -0.178329
 H -1.68148 -1.74304 1.10739
 O 4.46185 -0.0192531 0.0201548
 H 3.8299 0.580006 0.491473
 H 3.98849 -0.274445 -0.811344
