16
Potential is -0.0152482 compared with the distance is infinite.
 C 0.12187 1.11163 -0.49145
 N 0.578879 2.25449 -1.18808
 H 1.47542 2.22727 -1.69492
 H 0.0231325 3.12237 -1.1963
 N 0.868537 -0.0247526 -0.491685
 C 0.451919 -1.13637 0.169807
 O 1.13795 -2.14262 0.155238
 N -0.739749 -1.124 0.852593
 C -1.51073 -0.00473677 0.873345
 H -1.06075 -1.97861 1.36155
 C -1.09359 1.14123 0.198543
 H -2.44895 -0.0022623 1.41367
 H -1.7043 2.03524 0.212173
 O 3.86663 0.00139125 0.0126682
 H 3.13846 0.399825 0.552698
 H 3.40402 -0.421905 -0.753751
