16
Potential is -0.010555 compared with the distance is infinite.
 C -0.980395 -0.662222 0.303949
 N -2.00786 -1.34166 0.998894
 H -2.03678 -1.3217 2.02855
 H -2.73499 -1.86138 0.485754
 N -0.029469 0.0184024 0.997756
 C 0.968273 0.679378 0.353971
 O 1.80883 1.28218 0.997004
 N 1.0276 0.667001 -1.01816
 C 0.0931024 -0.00351937 -1.74252
 H 1.7947 1.17516 -1.51391
 C -0.934741 -0.684972 -1.09309
 H 0.146181 -0.00893422 -2.8239
 H -1.68148 -1.22053 -1.66578
 O 4.3456 0.0387937 -0.0319137
 H 3.8141 -0.706816 -0.408995
 H 4.06227 0.0911325 0.915489
