16
Potential is -0.012003 compared with the distance is infinite.
 C -0.528375 -0.411933 -1.02139
 N -1.0248 -1.21552 -2.07404
 H -0.884905 -2.23607 -2.05604
 H -1.52917 -0.791353 -2.8664
 N 0.134683 -0.989105 0.015968
 C 0.621472 -0.239451 1.03963
 O 1.2121 -0.77903 1.95801
 N 0.447274 1.12293 1.03754
 C -0.210808 1.73215 0.0160953
 H 0.821411 1.70006 1.82454
 C -0.71438 0.973492 -1.03911
 H -0.344387 2.80656 0.0211192
 H -1.2393 1.45426 -1.85503
 O 3.20477 0.0330646 -0.038252
 H 3.1598 -0.903394 0.280549
 H 4.05805 0.378635 0.326537
