16
Potential is -0.0122983 compared with the distance is infinite.
 C -0.900636 0.348492 -0.748001
 N -1.95157 0.390743 -1.69353
 H -2.26843 -0.474762 -2.15388
 H -2.40948 1.28292 -1.93115
 N -0.308256 -0.837817 -0.446949
 C 0.703444 -0.90549 0.457883
 O 1.21861 -1.97965 0.711234
 N 1.14298 0.235005 1.08438
 C 0.572928 1.43732 0.80679
 H 1.92103 0.183646 1.78039
 C -0.465375 1.51886 -0.119428
 H 0.924575 2.33222 1.30451
 H -0.922627 2.47435 -0.343874
 O 3.92714 0.0194113 0.0608508
 H 3.94704 -0.896385 -0.315357
 H 4.31582 0.588313 -0.650389
