16
Potential is -0.0161737 compared with the distance is infinite.
 C -0.865088 -0.637423 0.580873
 N -1.81424 -1.11725 1.51315
 H -1.95507 -0.625756 2.40759
 H -2.3724 -1.95925 1.30915
 N -0.137705 0.475152 0.867174
 C 0.78048 0.956621 -0.0114387
 O 1.42008 1.95496 0.267198
 N 0.985787 0.318325 -1.21013
 C 0.275776 -0.796303 -1.52804
 H 1.69181 0.688109 -1.88631
 C -0.668553 -1.29919 -0.634758
 H 0.442936 -1.29426 -2.47478
 H -1.2366 -2.1868 -0.883532
 O 3.63559 -0.0123554 -0.065132
 H 3.45299 0.813412 0.450013
 H 4.07564 -0.617324 0.583679
