16
Potential is -0.0104961 compared with the distance is infinite.
 C -0.809499 -0.912041 -0.0706387
 N -1.66673 -2.00211 0.207175
 H -1.71464 -2.39305 1.15916
 H -2.24972 -2.41511 -0.535582
 N -0.0476209 -0.379973 0.921996
 C 0.784081 0.667475 0.681246
 O 1.45683 1.12719 1.58649
 N 0.864958 1.20544 -0.579894
 C 0.117243 0.697726 -1.59514
 H 1.50442 2.01104 -0.765723
 C -0.739226 -0.376412 -1.36001
 H 0.186156 1.12687 -2.58676
 H -1.33685 -0.784296 -2.16555
 O 4.1566 -0.0248452 -0.0279498
 H 3.47794 -0.512935 0.502901
 H 3.82373 0.907247 -0.0593174
