16
Potential is -0.00936222 compared with the distance is infinite.
 C 0.390047 1.09639 0.371322
 N 0.793531 2.44997 0.444201
 H 0.790746 3.03696 -0.402473
 H 1.09316 2.86178 1.34017
 N -0.00217158 0.570167 -0.819529
 C -0.394415 -0.727369 -0.916392
 O -0.741545 -1.17636 -1.99403
 N -0.398994 -1.52933 0.198619
 C -0.0129491 -1.03531 1.40464
 H -0.700561 -2.52736 0.124807
 C 0.391323 0.293886 1.516
 H -0.0190949 -1.67334 2.27934
 H 0.699717 0.691976 2.47456
 O 3.50397 -0.0419482 0.0531695
 H 2.70554 0.171524 -0.492325
 H 4.23152 0.494224 -0.351514
