16
Potential is -0.00907604 compared with the distance is infinite.
 C -0.330237 -0.136931 -1.16803
 N -0.667219 -0.653877 -2.44062
 H -0.652212 -1.67057 -2.60657
 H -0.930048 -0.0226816 -3.21175
 N 0.0140071 -0.984958 -0.162433
 C 0.341993 -0.513778 1.06933
 O 0.646994 -1.2929 1.9544
 N 0.329203 0.837598 1.31437
 C -0.0101221 1.71318 0.331618
 H 0.581347 1.20064 2.2615
 C -0.348335 1.24145 -0.935538
 H -0.0180216 2.77714 0.532004
 H -0.619333 1.93503 -1.72162
 O 3.55334 0.024518 -0.0340027
 H 3.20057 -0.900706 -0.0450817
 H 2.9529 0.511587 0.584728
