16
Potential is -0.0156053 compared with the distance is infinite.
 C 0.168052 -0.0566829 1.20857
 N 0.670735 0.0649449 2.52492
 H 1.56125 0.55413 2.69551
 H 0.154586 -0.33228 3.32363
 N 0.862767 0.473778 0.167005
 C 0.401571 0.370601 -1.10716
 O 1.04146 0.853818 -2.02391
 N -0.78309 -0.277054 -1.35924
 C -1.50271 -0.818812 -0.341282
 H -1.13836 -0.356751 -2.33897
 C -1.03955 -0.719151 0.969501
 H -2.43572 -1.32793 -0.547475
 H -1.60926 -1.14911 1.78373
 O 3.86565 -0.0168527 0.00294802
 H 3.08267 -0.622701 0.0254248
 H 3.47545 0.890165 -0.0722121
