16
Potential is -0.0137245 compared with the distance is infinite.
 C 0.948495 0.761423 0.112654
 N 1.80875 1.88387 0.0938996
 H 1.474 2.78616 -0.273823
 H 2.77468 1.81193 0.445936
 N -0.322865 0.875083 -0.355964
 C -1.16927 -0.188117 -0.349043
 O -2.30366 -0.0620017 -0.774077
 N -0.745522 -1.40113 0.136209
 C 0.518998 -1.54949 0.612191
 H -1.39599 -2.21923 0.14182
 C 1.39583 -0.466088 0.610066
 H 0.846144 -2.50868 0.993175
 H 2.4041 -0.579364 0.988185
 O 4.55194 -0.00452563 0.0476662
 H 5.45492 0.392895 0.133088
 H 4.50784 -0.32107 -0.889586
