16
Potential is -0.0148397 compared with the distance is infinite.
 C 0.494786 1.11673 -0.014419
 N 1.38222 2.21704 -0.0596413
 H 2.39714 2.0601 -0.141668
 H 1.02535 3.18267 -0.0112858
 N 0.983762 -0.150374 -0.0795193
 C 0.152439 -1.22463 -0.0380862
 O 0.613819 -2.35021 -0.0980241
 N -1.20423 -1.04034 0.0710776
 C -1.72644 0.212794 0.138459
 H -1.84415 -1.86612 0.102989
 C -0.883539 1.32202 0.0968803
 H -2.7969 0.350474 0.224433
 H -1.29483 2.32223 0.150234
 O 4.01518 0.0587662 -0.0303058
 H 3.90691 -0.830594 -0.45212
 H 3.85215 -0.102068 0.933095
