16
Potential is -0.0121096 compared with the distance is infinite.
 C -0.666601 -0.971919 0.321114
 N -1.45588 -1.91771 1.01593
 H -1.7214 -1.74905 1.99699
 H -1.77237 -2.78134 0.551056
 N -0.258195 0.161971 0.950697
 C 0.500773 1.0864 0.30554
 O 0.854605 2.09446 0.890368
 N 0.867227 0.883429 -1.00249
 C 0.476124 -0.239104 -1.66168
 H 1.45094 1.59402 -1.49926
 C -0.302422 -1.19409 -1.01017
 H 0.768754 -0.392428 -2.69274
 H -0.616417 -2.0899 -1.53109
 O 3.6144 -0.0133008 -0.0561953
 H 4.58728 -0.130089 0.0868912
 H 3.27776 0.341182 0.804969
