16
Potential is -0.00990202 compared with the distance is infinite.
 C 0.127721 0.297288 1.17788
 N -0.0587664 0.791176 2.48997
 H -0.923636 1.29441 2.73528
 H 0.664505 0.653875 3.21119
 N -0.837539 0.487818 0.239346
 C -0.682873 0.0232637 -1.02837
 O -1.56143 0.206079 -1.85184
 N 0.461513 -0.650473 -1.37891
 C 1.4463 -0.858312 -0.465362
 H 0.58109 -1.00803 -2.35374
 C 1.2987 -0.386414 0.837759
 H 2.3457 -1.39025 -0.748813
 H 2.08041 -0.549527 1.56902
 O 4.64372 -0.0193746 -0.0325476
 H 5.15177 0.822637 -0.148785
 H 5.14146 -0.515147 0.665338
