16
Potential is -0.0128205 compared with the distance is infinite.
 C 0.553202 -0.255851 -1.05859
 N 1.48655 -0.407624 -2.1103
 H 2.46167 -0.0995973 -1.9851
 H 1.20305 -0.825725 -3.0086
 N 0.945316 0.297935 0.119737
 C 0.0681433 0.45492 1.14578
 O 0.442697 0.953619 2.19192
 N -1.23701 0.0519014 1.00231
 C -1.6623 -0.505465 -0.16218
 H -1.91215 0.17235 1.79106
 C -0.771609 -0.671444 -1.22129
 H -2.69262 -0.820825 -0.268124
 H -1.1057 -1.11493 -2.15087
 O 4.02809 0.0116614 -0.063137
 H 4.88233 0.301588 0.345307
 H 3.56542 -0.486662 0.656723
