16
Potential is -0.00917089 compared with the distance is infinite.
 C -0.288589 -0.534303 -1.05987
 N -0.849793 -0.862276 -2.31596
 H -1.56002 -0.249012 -2.7413
 H -0.556074 -1.71371 -2.81688
 N -0.688304 0.593246 -0.413546
 C -0.164687 0.930866 0.79421
 O -0.538453 1.9459 1.35404
 N 0.783411 0.128866 1.381
 C 1.20546 -1.00542 0.762261
 H 1.18653 0.387963 2.30987
 C 0.675515 -1.36172 -0.476613
 H 1.95317 -1.63283 1.23079
 H 1.00855 -2.26433 -0.973398
 O 4.14485 -0.0071277 0.0388538
 H 4.57555 -0.690786 -0.53361
 H 4.69978 0.803908 -0.0830273
