16
Potential is -0.0132882 compared with the distance is infinite.
 C -0.240365 -0.950862 0.728137
 N -0.169409 -1.99514 1.6793
 H 0.699011 -2.15276 2.21074
 H -0.981195 -2.6066 1.85033
 N 0.840776 -0.15403 0.515843
 C 0.798509 0.856093 -0.392288
 O 1.77969 1.55668 -0.565073
 N -0.348132 1.08542 -1.11274
 C -1.44708 0.307744 -0.925363
 H -0.381302 1.86214 -1.81133
 C -1.41536 -0.731108 0.00328206
 H -2.34752 0.494351 -1.49686
 H -2.28825 -1.35331 0.156066
 O 4.34495 0.0419248 -0.0287123
 H 4.41957 -0.938498 0.088818
 H 3.46708 0.27312 0.366867
