16
Potential is -0.0106436 compared with the distance is infinite.
 C -1.21576 -0.108445 -0.0476813
 N -2.59833 0.0995454 -0.260983
 H -2.92829 0.968554 -0.705248
 H -3.2872 -0.61201 0.0241069
 N -0.321371 0.841534 -0.430423
 C 1.01225 0.666098 -0.236764
 O 1.79427 1.53124 -0.588007
 N 1.47585 -0.484135 0.353544
 C 0.609165 -1.45405 0.748135
 H 2.50142 -0.619689 0.502771
 C -0.760727 -1.28509 0.554614
 H 0.981794 -2.35817 1.21282
 H -1.45504 -2.0549 0.867265
 O 4.43824 -0.0220188 -0.0174064
 H 4.74438 0.282487 0.873753
 H 5.23583 0.0669673 -0.597501
