16
Potential is -0.0134011 compared with the distance is infinite.
 C -0.264615 -0.93776 -0.73667
 N -0.217739 -2.11174 -1.52398
 H 0.653582 -2.65784 -1.58716
 H -1.05013 -2.43209 -2.04034
 N 0.843553 -0.530347 -0.0622402
 C 0.824779 0.59389 0.701025
 O 1.82996 0.938904 1.29599
 N -0.325195 1.33826 0.800515
 C -1.45086 0.959488 0.139456
 H -0.340305 2.20301 1.38738
 C -1.44338 -0.191669 -0.64628
 H -2.35376 1.55118 0.222528
 H -2.3376 -0.497444 -1.17476
 O 4.19859 -0.0192767 -0.0650291
 H 4.75354 -0.39165 0.66571
 H 3.66886 0.697586 0.366349
