16
Potential is -0.0123219 compared with the distance is infinite.
 C 0.160375 -1.12737 0.442044
 N 0.538112 -2.47577 0.640585
 H 1.11134 -2.96161 -0.0642451
 H 0.245691 -2.98441 1.48788
 N 0.555496 -0.47222 -0.682024
 C 0.205982 0.823391 -0.896661
 O 0.571828 1.38933 -1.91119
 N -0.557772 1.49184 0.0286928
 C -0.969764 0.866855 1.16326
 H -0.826923 2.4883 -0.135775
 C -0.617381 -0.461737 1.39406
 H -1.57163 1.40005 1.8883
 H -0.943183 -0.963859 2.29636
 O 3.41575 0.00314884 0.0659112
 H 3.25665 0.757136 -0.556021
 H 3.29333 -0.807111 -0.490036
