16
Potential is -0.0133524 compared with the distance is infinite.
 C 0.00806583 0.735767 0.975028
 N -0.349689 1.56216 2.0656
 H -1.34249 1.73388 2.28073
 H 0.374853 1.9993 2.65388
 N -0.961606 0.167365 0.209827
 C -0.644413 -0.630556 -0.843524
 O -1.53049 -1.12863 -1.51448
 N 0.672178 -0.873977 -1.14972
 C 1.66648 -0.321638 -0.405501
 H 0.916811 -1.48757 -1.95971
 C 1.35313 0.498333 0.677113
 H 2.70213 -0.517928 -0.652741
 H 2.14169 0.940594 1.27291
 O 4.70843 -0.0227162 -0.048564
 H 5.09512 -0.533807 0.706335
 H 5.0646 0.894329 0.0644111
