16
Potential is -0.00988716 compared with the distance is infinite.
 C 0.428155 1.14369 0.0275091
 N 0.566065 2.55121 0.0157691
 H -0.264085 3.15149 -0.0934809
 H 1.49344 2.98949 0.115809
 N -0.803455 0.583099 -0.105731
 C -0.963015 -0.766461 -0.0976809
 O -2.07626 -1.24548 -0.218651
 N 0.128885 -1.58705 0.0465691
 C 1.37434 -1.05975 0.182089
 H 0.00685487 -2.62508 0.0528491
 C 1.55009 0.322879 0.175279
 H 2.23049 -1.71274 0.295379
 H 2.54025 0.747629 0.282909
 O 4.86083 0.0211178 0.0512078
 H 5.85016 0.00477778 0.0115878
 H 4.57147 -0.339932 -0.824292
