16
Potential is -0.0166743 compared with the distance is infinite.
 C 0.581151 0.533387 -0.932663
 N 1.51532 1.20395 -1.75603
 H 2.41408 1.52228 -1.36574
 H 1.30841 1.38059 -2.75007
 N 0.871395 0.30907 0.376657
 C -0.00892916 -0.332888 1.18891
 O 0.27333 -0.522366 2.35845
 N -1.2134 -0.766432 0.6912
 C -1.53537 -0.558594 -0.612916
 H -1.8909 -1.26023 1.31537
 C -0.640387 0.0986505 -1.45531
 H -2.48667 -0.903122 -0.998348
 H -0.892378 0.266544 -2.49489
 O 3.95454 -0.0254556 -0.0312939
 H 3.06667 -0.449533 0.0802665
 H 3.86768 0.853532 0.41639
