16
Potential is -0.0127359 compared with the distance is infinite.
 C 0.998106 0.572303 -0.410308
 N 1.94273 1.28474 -1.18516
 H 1.69722 1.60709 -2.13238
 H 2.88193 1.48816 -0.812814
 N -0.236351 0.313103 -0.918057
 C -1.162 -0.369433 -0.194077
 O -2.26122 -0.589637 -0.670147
 N -0.857686 -0.809249 1.07098
 C 0.366911 -0.567259 1.60893
 H -1.56916 -1.33424 1.62833
 C 1.3242 0.131744 0.875726
 H 0.599786 -0.916984 2.60677
 H 2.3011 0.326943 1.29997
 O 4.56707 0.056078 -0.0193141
 H 4.83887 -0.201953 0.897284
 H 4.8838 -0.688044 -0.590756
