16
Potential is -0.0189528 compared with the distance is infinite.
 C -0.0135342 0.552778 1.0892
 N 0.337564 1.15504 2.31976
 H 1.32769 1.23351 2.59346
 H -0.389216 1.52002 2.95278
 N 0.95901 0.0768634 0.266676
 C 0.648205 -0.50608 -0.920932
 O 1.53675 -0.924938 -1.64096
 N -0.664726 -0.622029 -1.30718
 C -1.66175 -0.156929 -0.508932
 H -0.904445 -1.07026 -2.22045
 C -1.35494 0.442761 0.711248
 H -2.69448 -0.251756 -0.819891
 H -2.14569 0.814783 1.35056
 O 3.98951 0.054231 0.01001
 H 3.21849 -0.0286658 -0.605833
 H 4.05443 -0.832019 0.446968
