10
	Energy:      12.1092514
   O                        0.53157795     0.49670131     0.29878431
    O                       -0.53157795    -0.49670131     0.29878431
     C               1.75848469    -0.23952029     0.29878280
   H              2.53584118     0.50874971     0.29873564
    H                  1.82380663    -0.85322779    -0.58633829
     H                  1.82385603    -0.85311938     1.18397935
     C           -1.75848469     0.23952029     0.29878280
    H          -2.53584118    -0.50874971     0.29873564
    H          -1.82380663     0.85322779    -0.58633829
 H                  -1.82385603     0.85311938     1.18397935
